Info: SIMULATION PARAMETERS:
Info: TIMESTEP               2
Info: NUMBER OF STEPS        3000
Info: STEPS PER CYCLE        20
Info: PERIODIC CELL BASIS 1  89 0 0
Info: PERIODIC CELL BASIS 2  0 70 0
Info: PERIODIC CELL BASIS 3  0 0 68
Info: PERIODIC CELL CENTER   0 0 0
Info: WRAPPING WATERS AROUND PERIODIC BOUNDARIES ON OUTPUT.
Info: WRAPPING ALL CLUSTERS AROUND PERIODIC BOUNDARIES ON OUTPUT.
Info: FIRST LDB TIMESTEP     100
Info: LAST LDB TIMESTEP     -1
Info: HOM BACKGROUND SCALING 1
Info: PME BACKGROUND SCALING 1
Info: MIN ATOMS PER PATCH    40
Info: VELOCITY FILE          minimized.vel
Info: CENTER OF MASS MOVING INITIALLY? NO
Info: DIELECTRIC             1
Info: EXCLUDE                SCALED ONE-FOUR
Info: 1-4 ELECTROSTATICS SCALED BY 1
Info: MODIFIED 1-4 VDW PARAMETERS WILL BE USED
Info: DCD FILENAME           aloop-tmd-20.dcd
Info: DCD FREQUENCY          2500
Info: DCD FIRST STEP         5000
Info: DCD FILE WILL CONTAIN UNIT CELL DATA
Info: XST FILENAME           aloop-tmd-20.xst
Info: XST FREQUENCY          5000
Info: NO VELOCITY DCD OUTPUT
Info: NO FORCE DCD OUTPUT
Info: OUTPUT FILENAME        aloop-tmd-20
Info: BINARY OUTPUT FILES WILL BE USED
Info: RESTART FILENAME       aloop-tmd-20.restart
Info: RESTART FREQUENCY      5000
Info: BINARY RESTART FILES WILL BE USED
Info: SWITCHING ACTIVE
Info: VDW FORCE SWITCHING ACTIVE
Info: SWITCHING ON           10
Info: SWITCHING OFF          12
Info: PAIRLIST DISTANCE      16
Info: PAIRLIST SHRINK RATE   0.01
Info: PAIRLIST GROW RATE     0.01
Info: PAIRLIST TRIGGER       0.3
Info: PAIRLISTS PER CYCLE    2
Info: PAIRLISTS ENABLED
Info: MARGIN                 0.555
Info: HYDROGEN GROUP CUTOFF  2.5
Info: PATCH DIMENSION        19.055
Info: ENERGY OUTPUT STEPS    5000
Info: CROSSTERM ENERGY INCLUDED IN DIHEDRAL
Info: TIMING OUTPUT STEPS    5000
Info: TMD ACTIVE BETWEEN STEPS 3000 and 5003000
Info: TMD K  0
Info: TMD FILE  target-tmd-tak1-in.pdb
Info: TMD OUTPUT FREQUENCY  2500
Info: TMD TARGET RMSD AT FIRST STEP  -1
Info: TMD TARGET RMSD AT FINAL STEP  0
Info: LANGEVIN DYNAMICS ACTIVE
Info: LANGEVIN TEMPERATURE   300
Info: LANGEVIN USING BBK INTEGRATOR
Info: LANGEVIN DAMPING COEFFICIENT IS 1 INVERSE PS
Info: LANGEVIN DYNAMICS NOT APPLIED TO HYDROGENS
Info: LANGEVIN PISTON PRESSURE CONTROL ACTIVE
Info:        TARGET PRESSURE IS 1.01325 BAR
Info:     OSCILLATION PERIOD IS 50 FS
Info:             DECAY TIME IS 25 FS
Info:     PISTON TEMPERATURE IS 300 K
Info:       PRESSURE CONTROL IS GROUP-BASED
Info:    INITIAL STRAIN RATE IS 0 0 0
Info:       CELL FLUCTUATION IS ISOTROPIC
Info: PARTICLE MESH EWALD (PME) ACTIVE
Info: PME TOLERANCE               1e-06
Info: PME EWALD COEFFICIENT       0.257952
Info: PME INTERPOLATION ORDER     6
Info: PME GRID DIMENSIONS         96 72 72
Info: PME MAXIMUM GRID SPACING    1
Info: PME RECIPROCAL SUM OFFLOADED TO GPU
Info: FULL ELECTROSTATIC EVALUATION FREQUENCY      1
Info: USING VERLET I (r-RESPA) MTS SCHEME.
Info: C1 SPLITTING OF LONG RANGE ELECTROSTATICS
Info: PLACING ATOMS IN PATCHES BY HYDROGEN GROUPS
Info: RIGID BONDS TO HYDROGEN : ALL
Info:         ERROR TOLERANCE : 1e-08
Info:          MAX ITERATIONS : 100
Info: RIGID WATER USING SETTLE ALGORITHM
Info: RANDOM NUMBER SEED     1957637942
Info: USE HYDROGEN BONDS?    NO
Info: COORDINATE PDB         source-structures/tak1-out-frame16498.pdb
Info: STRUCTURE FILE         source-structures/tak1-out-frame16498.xplor.ext.psf
Info: PARAMETER file: CHARMM format!
Info: PARAMETERS             toppar/par_all36m_prot.prm
Info: PARAMETERS             toppar/par_all36_na.prm
Info: PARAMETERS             toppar/par_all36_carb.prm
Info: PARAMETERS             toppar/par_all36_lipid.prm
Info: PARAMETERS             toppar/par_all36_cgenff.prm
Info: PARAMETERS             toppar/toppar_water_ions.str
Info: PARAMETERS             toppar/toppar_dum_noble_gases.str
Info: PARAMETERS             toppar/toppar_all36_prot_fluoro_alkanes.str
Info: PARAMETERS             toppar/toppar_all36_prot_heme.str
Info: PARAMETERS             toppar/toppar_all36_prot_na_combined.str
Info: PARAMETERS             toppar/toppar_all36_prot_retinol.str
Info: PARAMETERS             toppar/toppar_all36_na_nad_ppi.str
Info: PARAMETERS             toppar/toppar_all36_na_rna_modified.str
Info: PARAMETERS             toppar/toppar_all36_lipid_bacterial.str
Info: PARAMETERS             toppar/toppar_all36_lipid_cardiolipin.str
Info: PARAMETERS             toppar/toppar_all36_lipid_cholesterol.str
Info: PARAMETERS             toppar/toppar_all36_lipid_inositol.str
Info: PARAMETERS             toppar/toppar_all36_lipid_lps.str
Info: PARAMETERS             toppar/toppar_all36_lipid_miscellaneous.str
Info: PARAMETERS             toppar/toppar_all36_lipid_model.str
Info: PARAMETERS             toppar/toppar_all36_lipid_prot.str
Info: PARAMETERS             toppar/toppar_all36_lipid_sphingo.str
Info: PARAMETERS             toppar/toppar_all36_lipid_yeast.str
Info: PARAMETERS             toppar/toppar_all36_lipid_hmmm.str
Info: PARAMETERS             toppar/toppar_all36_lipid_detergent.str
Info: PARAMETERS             toppar/toppar_all36_carb_glycolipid.str
Info: PARAMETERS             toppar/toppar_all36_carb_glycopeptide.str
Info: PARAMETERS             toppar/toppar_all36_carb_imlab.str
Info: PARAMETERS             toppar/toppar_all36_label_spin.str
Info: PARAMETERS             toppar/toppar_all36_label_fluorophore.str
Info: USING ARITHMETIC MEAN TO COMBINE L-J SIGMA PARAMETERS
Info: BINARY COORDINATES     minimized.coor
Info: FIRST TIMESTEP         3000
Info: SUMMARY OF PARAMETERS:
Info: 1596 BONDS
Info: 4913 ANGLES
Info: 12992 DIHEDRAL
Info: 330 IMPROPER
Info: 10 CROSSTERM
Info: 551 VDW
Info: 45 VDW_PAIRS
Info: 0 NBTHOLE_PAIRS
Info: STRUCTURE SUMMARY:
Info: 39426 ATOMS
Info: 27762 BONDS
Info: 19721 ANGLES
Info: 11832 DIHEDRALS
Info: 756 IMPROPERS
Info: 276 CROSSTERMS
Info: 0 EXCLUSIONS
Info: 37167 RIGID BONDS
Info: 81111 DEGREES OF FREEDOM
Info: 13917 HYDROGEN GROUPS
Info: 4 ATOMS IN LARGEST HYDROGEN GROUP
Info: 13917 MIGRATION GROUPS
Info: 4 ATOMS IN LARGEST MIGRATION GROUP
Info: TOTAL MASS = 243738 amu
Info: TOTAL CHARGE = 3.29129e-06 e
Info: MASS DENSITY = 0.955401 g/cm^3
Info: ATOM DENSITY = 0.0930649 atoms/A^3
Info: ADDED 59065 IMPLICIT EXCLUSIONS
Info: NONBONDED TABLE R-SQUARED SPACING: 0.0625
Info: NONBONDED TABLE SIZE: 769 POINTS
Info: REMOVING COM VELOCITY 0 0 0
Info: Updated CUDA force table with 4096 elements.
Info: Updated CUDA LJ table with 551 x 551 elements.
Info: Found 309 unique exclusion lists needing 996 bytes
Info: TMD domain 0 has 186 atoms 186 fitted 186 biased
Info: 186 TMD ATOMS
TCL: Running for 5000000 steps
ETITLE: TS BOND ANGLE DIHED IMPRP ELECT VDW BOUNDARY MISC KINETIC TOTAL TEMP POTENTIAL TOTAL3 TEMPAVG PRESSURE GPRESSURE VOLUME PRESSAVG GPRESSAVG
ENERGY: 5000 811.3042 2210.9064 2477.6327 125.6112 -154948.9982 15068.6205 0.0000 0.0000 18440.5125 -115814.4106 228.8145 -134254.9232 -115754.0192 152.9200 278.6184 282.4061 380685.9946 -0.6834 -0.5840
ENERGY: 1005000 925.3375 2502.4688 2562.5234 149.2941 -140790.8159 11309.9550 0.0000 0.0000 24222.9293 -99118.3077 300.5642 -123341.2370 -99032.1319 299.4468 -162.4002 -163.0304 386583.2069 -0.2505 -0.2680
ENERGY: 2005000 900.9923 2563.3945 2545.9514 149.2038 -140957.7489 11482.9120 0.0000 0.0000 24230.1116 -99085.1833 300.6533 -123315.2949 -99004.2550 298.8179 50.5559 48.9514 386314.7644 1.2154 1.1925
ENERGY: 3000000 918.9158 2460.7483 2532.8058 137.2334 -140463.3307 10973.8749 0.0000 0.0000 24026.4219 -99413.3306 298.1259 -123439.7525 -99330.5309 298.5679 -402.1720 -402.3090 386646.8638 2.1645 2.1821
ENERGY: 4000000 916.7743 2564.6904 2539.3470 139.9356 -140942.8821 11539.1984 0.0000 0.0000 24326.0869 -98916.8494 301.8442 -123242.9363 -98836.8456 299.4520 3.6482 1.2839 387299.5670 1.3294 1.2998
ENERGY: 5000000 907.4743 2568.5016 2505.6548 135.5143 -141250.5794 11634.5451 0.0000 0.0000 24101.8166 -99397.0729 299.0614 -123498.8894 -99317.1921 299.6073 94.5482 95.8265 387316.8835 0.5394 0.5831
