Info: SIMULATION PARAMETERS:
Info: TIMESTEP               2
Info: NUMBER OF STEPS        3000
Info: STEPS PER CYCLE        20
Info: PERIODIC CELL BASIS 1  89 0 0
Info: PERIODIC CELL BASIS 2  0 71 0
Info: PERIODIC CELL BASIS 3  0 0 69
Info: PERIODIC CELL CENTER   0 0 0
Info: WRAPPING WATERS AROUND PERIODIC BOUNDARIES ON OUTPUT.
Info: WRAPPING ALL CLUSTERS AROUND PERIODIC BOUNDARIES ON OUTPUT.
Info: FIRST LDB TIMESTEP     100
Info: LAST LDB TIMESTEP     -1
Info: HOM BACKGROUND SCALING 1
Info: PME BACKGROUND SCALING 1
Info: MIN ATOMS PER PATCH    40
Info: VELOCITY FILE          minimized.vel
Info: CENTER OF MASS MOVING INITIALLY? NO
Info: DIELECTRIC             1
Info: EXCLUDE                SCALED ONE-FOUR
Info: 1-4 ELECTROSTATICS SCALED BY 1
Info: MODIFIED 1-4 VDW PARAMETERS WILL BE USED
Info: DCD FILENAME           aloop-tmd-20.dcd
Info: DCD FREQUENCY          2500
Info: DCD FIRST STEP         5000
Info: DCD FILE WILL CONTAIN UNIT CELL DATA
Info: XST FILENAME           aloop-tmd-20.xst
Info: XST FREQUENCY          5000
Info: NO VELOCITY DCD OUTPUT
Info: NO FORCE DCD OUTPUT
Info: OUTPUT FILENAME        aloop-tmd-20
Info: BINARY OUTPUT FILES WILL BE USED
Info: RESTART FILENAME       aloop-tmd-20.restart
Info: RESTART FREQUENCY      5000
Info: BINARY RESTART FILES WILL BE USED
Info: SWITCHING ACTIVE
Info: VDW FORCE SWITCHING ACTIVE
Info: SWITCHING ON           10
Info: SWITCHING OFF          12
Info: PAIRLIST DISTANCE      16
Info: PAIRLIST SHRINK RATE   0.01
Info: PAIRLIST GROW RATE     0.01
Info: PAIRLIST TRIGGER       0.3
Info: PAIRLISTS PER CYCLE    2
Info: PAIRLISTS ENABLED
Info: MARGIN                 0.555
Info: HYDROGEN GROUP CUTOFF  2.5
Info: PATCH DIMENSION        19.055
Info: ENERGY OUTPUT STEPS    5000
Info: CROSSTERM ENERGY INCLUDED IN DIHEDRAL
Info: TIMING OUTPUT STEPS    5000
Info: TMD ACTIVE BETWEEN STEPS 3000 and 5003000
Info: TMD K  0
Info: TMD FILE  target-tmd-ttb1-in.pdb
Info: TMD OUTPUT FREQUENCY  2500
Info: TMD TARGET RMSD AT FIRST STEP  -1
Info: TMD TARGET RMSD AT FINAL STEP  0
Info: LANGEVIN DYNAMICS ACTIVE
Info: LANGEVIN TEMPERATURE   300
Info: LANGEVIN USING BBK INTEGRATOR
Info: LANGEVIN DAMPING COEFFICIENT IS 1 INVERSE PS
Info: LANGEVIN DYNAMICS NOT APPLIED TO HYDROGENS
Info: LANGEVIN PISTON PRESSURE CONTROL ACTIVE
Info:        TARGET PRESSURE IS 1.01325 BAR
Info:     OSCILLATION PERIOD IS 50 FS
Info:             DECAY TIME IS 25 FS
Info:     PISTON TEMPERATURE IS 300 K
Info:       PRESSURE CONTROL IS GROUP-BASED
Info:    INITIAL STRAIN RATE IS 0 0 0
Info:       CELL FLUCTUATION IS ISOTROPIC
Info: PARTICLE MESH EWALD (PME) ACTIVE
Info: PME TOLERANCE               1e-06
Info: PME EWALD COEFFICIENT       0.257952
Info: PME INTERPOLATION ORDER     6
Info: PME GRID DIMENSIONS         96 72 72
Info: PME MAXIMUM GRID SPACING    1
Info: PME RECIPROCAL SUM OFFLOADED TO GPU
Info: FULL ELECTROSTATIC EVALUATION FREQUENCY      1
Info: USING VERLET I (r-RESPA) MTS SCHEME.
Info: C1 SPLITTING OF LONG RANGE ELECTROSTATICS
Info: PLACING ATOMS IN PATCHES BY HYDROGEN GROUPS
Info: RIGID BONDS TO HYDROGEN : ALL
Info:         ERROR TOLERANCE : 1e-08
Info:          MAX ITERATIONS : 100
Info: RIGID WATER USING SETTLE ALGORITHM
Info: RANDOM NUMBER SEED     1957637942
Info: USE HYDROGEN BONDS?    NO
Info: COORDINATE PDB         source-structures/ttb1-out-frame5497.pdb
Info: STRUCTURE FILE         source-structures/ttb1-out-frame5497.xplor.ext.psf
Info: PARAMETER file: CHARMM format!
Info: PARAMETERS             toppar/par_all36m_prot.prm
Info: PARAMETERS             toppar/par_all36_na.prm
Info: PARAMETERS             toppar/par_all36_carb.prm
Info: PARAMETERS             toppar/par_all36_lipid.prm
Info: PARAMETERS             toppar/par_all36_cgenff.prm
Info: PARAMETERS             toppar/toppar_water_ions.str
Info: PARAMETERS             toppar/toppar_dum_noble_gases.str
Info: PARAMETERS             toppar/toppar_all36_prot_fluoro_alkanes.str
Info: PARAMETERS             toppar/toppar_all36_prot_heme.str
Info: PARAMETERS             toppar/toppar_all36_prot_na_combined.str
Info: PARAMETERS             toppar/toppar_all36_prot_retinol.str
Info: PARAMETERS             toppar/toppar_all36_na_nad_ppi.str
Info: PARAMETERS             toppar/toppar_all36_na_rna_modified.str
Info: PARAMETERS             toppar/toppar_all36_lipid_bacterial.str
Info: PARAMETERS             toppar/toppar_all36_lipid_cardiolipin.str
Info: PARAMETERS             toppar/toppar_all36_lipid_cholesterol.str
Info: PARAMETERS             toppar/toppar_all36_lipid_inositol.str
Info: PARAMETERS             toppar/toppar_all36_lipid_lps.str
Info: PARAMETERS             toppar/toppar_all36_lipid_miscellaneous.str
Info: PARAMETERS             toppar/toppar_all36_lipid_model.str
Info: PARAMETERS             toppar/toppar_all36_lipid_prot.str
Info: PARAMETERS             toppar/toppar_all36_lipid_sphingo.str
Info: PARAMETERS             toppar/toppar_all36_lipid_yeast.str
Info: PARAMETERS             toppar/toppar_all36_lipid_hmmm.str
Info: PARAMETERS             toppar/toppar_all36_lipid_detergent.str
Info: PARAMETERS             toppar/toppar_all36_carb_glycolipid.str
Info: PARAMETERS             toppar/toppar_all36_carb_glycopeptide.str
Info: PARAMETERS             toppar/toppar_all36_carb_imlab.str
Info: PARAMETERS             toppar/toppar_all36_label_spin.str
Info: PARAMETERS             toppar/toppar_all36_label_fluorophore.str
Info: USING ARITHMETIC MEAN TO COMBINE L-J SIGMA PARAMETERS
Info: BINARY COORDINATES     minimized.coor
Info: FIRST TIMESTEP         3000
Info: SUMMARY OF PARAMETERS:
Info: 1596 BONDS
Info: 4913 ANGLES
Info: 12992 DIHEDRAL
Info: 330 IMPROPER
Info: 10 CROSSTERM
Info: 551 VDW
Info: 45 VDW_PAIRS
Info: 0 NBTHOLE_PAIRS
Info: STRUCTURE SUMMARY:
Info: 40081 ATOMS
Info: 28357 BONDS
Info: 20613 ANGLES
Info: 13065 DIHEDRALS
Info: 838 IMPROPERS
Info: 305 CROSSTERMS
Info: 0 EXCLUSIONS
Info: 37578 RIGID BONDS
Info: 82665 DEGREES OF FREEDOM
Info: 14228 HYDROGEN GROUPS
Info: 4 ATOMS IN LARGEST HYDROGEN GROUP
Info: 14228 MIGRATION GROUPS
Info: 4 ATOMS IN LARGEST MIGRATION GROUP
Info: TOTAL MASS = 248455 amu
Info: TOTAL CHARGE = 3.67314e-06 e
Info: MASS DENSITY = 0.946258 g/cm^3
Info: ATOM DENSITY = 0.0919266 atoms/A^3
Info: ADDED 61740 IMPLICIT EXCLUSIONS
Info: NONBONDED TABLE R-SQUARED SPACING: 0.0625
Info: NONBONDED TABLE SIZE: 769 POINTS
Info: REMOVING COM VELOCITY 0 0 0
Info: Updated CUDA force table with 4096 elements.
Info: Updated CUDA LJ table with 551 x 551 elements.
Info: Found 318 unique exclusion lists needing 1032 bytes
Info: TMD domain 0 has 186 atoms 186 fitted 186 biased
Info: 186 TMD ATOMS
TCL: Running for 5000000 steps
ETITLE: TS BOND ANGLE DIHED IMPRP ELECT VDW BOUNDARY MISC KINETIC TOTAL TEMP POTENTIAL TOTAL3 TEMPAVG PRESSURE GPRESSURE VOLUME PRESSAVG GPRESSAVG
ENERGY: 5000 874.6765 2524.5543 2775.1796 141.7242 -157109.4204 14767.0289 0.0000 0.0000 19093.0660 -116933.1908 232.4579 -136026.2568 -116860.4251 154.2371 299.0641 300.3542 382533.7736 -0.7997 -0.7535
ENERGY: 1005000 1047.6867 2741.5868 2819.2389 166.9504 -142784.9927 11145.6323 0.0000 0.0000 24705.1703 -100158.7273 300.7853 -124863.8976 -100075.6835 299.6007 -128.4325 -132.7075 393323.1618 -0.2657 -0.2602
ENERGY: 2005000 1005.1633 2812.0517 2771.1983 144.5526 -143049.2906 11381.8281 0.0000 0.0000 24712.9013 -100221.5953 300.8794 -124934.4966 -100136.8234 299.6161 -39.1020 -37.6730 394453.7966 1.1606 1.2116
ENERGY: 3000000 1062.5113 2828.3688 2851.0098 167.5670 -143085.6558 11168.9937 0.0000 0.0000 24277.8562 -100729.3490 295.5827 -125007.2052 -100642.5773 297.8643 -455.7973 -457.0701 392751.8472 2.1668 2.1502
ENERGY: 4000000 1006.2636 2862.5472 2830.3792 184.4759 -143316.0152 11377.2120 0.0000 0.0000 24459.2288 -100595.9086 297.7909 -125055.1374 -100506.2704 299.0170 -25.8193 -25.7934 393164.8034 1.2975 1.2827
ENERGY: 5000000 957.4979 2822.1480 2833.0217 165.8236 -143203.5827 11354.8494 0.0000 0.0000 24653.9596 -100416.2823 300.1618 -125070.2420 -100328.4822 299.9052 9.1658 8.7073 393571.7320 0.6036 0.5808
