Info: SIMULATION PARAMETERS:
Info: TIMESTEP               2
Info: NUMBER OF STEPS        64000
Info: STEPS PER CYCLE        20
Info: PERIODIC CELL BASIS 1  87.2478 0 0
Info: PERIODIC CELL BASIS 2  0 68.8288 0
Info: PERIODIC CELL BASIS 3  0 0 63.0123
Info: PERIODIC CELL CENTER   0 0 0
Info: WRAPPING WATERS AROUND PERIODIC BOUNDARIES ON OUTPUT.
Info: WRAPPING ALL CLUSTERS AROUND PERIODIC BOUNDARIES ON OUTPUT.
Info: FIRST LDB TIMESTEP     100
Info: LAST LDB TIMESTEP     -1
Info: HOM BACKGROUND SCALING 1
Info: PME BACKGROUND SCALING 1
Info: MIN ATOMS PER PATCH    40
Info: VELOCITY FILE          heating-irun1.vel
Info: CENTER OF MASS MOVING INITIALLY? NO
Info: DIELECTRIC             1
Info: EXCLUDE                SCALED ONE-FOUR
Info: 1-4 ELECTROSTATICS SCALED BY 1
Info: MODIFIED 1-4 VDW PARAMETERS WILL BE USED
Info: DCD FILENAME           equilibration-irun1.dcd
Info: DCD FREQUENCY          1000
Info: DCD FIRST STEP         65000
Info: DCD FILE WILL CONTAIN UNIT CELL DATA
Info: XST FILENAME           equilibration-irun1.xst
Info: XST FREQUENCY          1000
Info: NO VELOCITY DCD OUTPUT
Info: NO FORCE DCD OUTPUT
Info: OUTPUT FILENAME        equilibration-irun1
Info: BINARY OUTPUT FILES WILL BE USED
Info: RESTART FILENAME       equilibration-irun1.restart
Info: RESTART FREQUENCY      1000
Info: BINARY RESTART FILES WILL BE USED
Info: SWITCHING ACTIVE
Info: VDW FORCE SWITCHING ACTIVE
Info: SWITCHING ON           10
Info: SWITCHING OFF          12
Info: PAIRLIST DISTANCE      16
Info: PAIRLIST SHRINK RATE   0.01
Info: PAIRLIST GROW RATE     0.01
Info: PAIRLIST TRIGGER       0.3
Info: PAIRLISTS PER CYCLE    2
Info: PAIRLISTS ENABLED
Info: MARGIN                 0.555
Info: HYDROGEN GROUP CUTOFF  2.5
Info: PATCH DIMENSION        19.055
Info: ENERGY OUTPUT STEPS    1000
Info: CROSSTERM ENERGY INCLUDED IN DIHEDRAL
Info: TIMING OUTPUT STEPS    1000
Info: COLLECTIVE VARIABLES CALCULATION REQUESTED
Info: COLLECTIVE VARIABLES CONFIGURATION   restraints/equilibration-irun1.col
Info: LANGEVIN DYNAMICS ACTIVE
Info: LANGEVIN TEMPERATURE   300
Info: LANGEVIN USING BBK INTEGRATOR
Info: LANGEVIN DAMPING COEFFICIENT IS 1 INVERSE PS
Info: LANGEVIN DYNAMICS NOT APPLIED TO HYDROGENS
Info: VELOCITY REASSIGNMENT FREQ  500
Info: VELOCITY REASSIGNMENT TEMP  300
Info: LANGEVIN PISTON PRESSURE CONTROL ACTIVE
Info:        TARGET PRESSURE IS 1.01325 BAR
Info:     OSCILLATION PERIOD IS 50 FS
Info:             DECAY TIME IS 25 FS
Info:     PISTON TEMPERATURE IS 300 K
Info:       PRESSURE CONTROL IS GROUP-BASED
Info:    INITIAL STRAIN RATE IS -0.000202594 -0.000202594 -0.000202594
Info:       CELL FLUCTUATION IS ISOTROPIC
Info: PARTICLE MESH EWALD (PME) ACTIVE
Info: PME TOLERANCE               1e-06
Info: PME EWALD COEFFICIENT       0.257952
Info: PME INTERPOLATION ORDER     6
Info: PME GRID DIMENSIONS         88 72 64
Info: PME MAXIMUM GRID SPACING    1
Info: PME RECIPROCAL SUM OFFLOADED TO GPU
Info: FULL ELECTROSTATIC EVALUATION FREQUENCY      1
Info: USING VERLET I (r-RESPA) MTS SCHEME.
Info: C1 SPLITTING OF LONG RANGE ELECTROSTATICS
Info: PLACING ATOMS IN PATCHES BY HYDROGEN GROUPS
Info: RIGID BONDS TO HYDROGEN : ALL
Info:         ERROR TOLERANCE : 1e-08
Info:          MAX ITERATIONS : 100
Info: RIGID WATER USING SETTLE ALGORITHM
Info: RANDOM NUMBER SEED     1602927366
Info: USE HYDROGEN BONDS?    NO
Info: COORDINATE PDB         ../../step3_pbcsetup.pdb
Info: STRUCTURE FILE         ../../step3_pbcsetup.xplor.ext.psf
Info: PARAMETER file: CHARMM format!
Info: PARAMETERS             toppar/par_all36m_prot.prm
Info: PARAMETERS             toppar/par_all36_na.prm
Info: PARAMETERS             toppar/par_all36_carb.prm
Info: PARAMETERS             toppar/par_all36_lipid.prm
Info: PARAMETERS             toppar/par_all36_cgenff.prm
Info: PARAMETERS             toppar/toppar_water_ions.str
Info: PARAMETERS             toppar/toppar_dum_noble_gases.str
Info: PARAMETERS             toppar/toppar_all36_prot_fluoro_alkanes.str
Info: PARAMETERS             toppar/toppar_all36_prot_heme.str
Info: PARAMETERS             toppar/toppar_all36_prot_na_combined.str
Info: PARAMETERS             toppar/toppar_all36_prot_retinol.str
Info: PARAMETERS             toppar/toppar_all36_na_nad_ppi.str
Info: PARAMETERS             toppar/toppar_all36_na_rna_modified.str
Info: PARAMETERS             toppar/toppar_all36_lipid_bacterial.str
Info: PARAMETERS             toppar/toppar_all36_lipid_cardiolipin.str
Info: PARAMETERS             toppar/toppar_all36_lipid_cholesterol.str
Info: PARAMETERS             toppar/toppar_all36_lipid_inositol.str
Info: PARAMETERS             toppar/toppar_all36_lipid_lps.str
Info: PARAMETERS             toppar/toppar_all36_lipid_miscellaneous.str
Info: PARAMETERS             toppar/toppar_all36_lipid_model.str
Info: PARAMETERS             toppar/toppar_all36_lipid_prot.str
Info: PARAMETERS             toppar/toppar_all36_lipid_sphingo.str
Info: PARAMETERS             toppar/toppar_all36_lipid_yeast.str
Info: PARAMETERS             toppar/toppar_all36_lipid_hmmm.str
Info: PARAMETERS             toppar/toppar_all36_lipid_detergent.str
Info: PARAMETERS             toppar/toppar_all36_carb_glycolipid.str
Info: PARAMETERS             toppar/toppar_all36_carb_glycopeptide.str
Info: PARAMETERS             toppar/toppar_all36_carb_imlab.str
Info: PARAMETERS             toppar/toppar_all36_label_spin.str
Info: PARAMETERS             toppar/toppar_all36_label_fluorophore.str
Info: USING ARITHMETIC MEAN TO COMBINE L-J SIGMA PARAMETERS
Info: BINARY COORDINATES     heating-irun1.coor
Info: FIRST TIMESTEP         64000
Info: SUMMARY OF PARAMETERS:
Info: 1560 BONDS
Info: 4670 ANGLES
Info: 11987 DIHEDRAL
Info: 298 IMPROPER
Info: 10 CROSSTERM
Info: 550 VDW
Info: 45 VDW_PAIRS
Info: 0 NBTHOLE_PAIRS
Info: STRUCTURE SUMMARY:
Info: 38463 ATOMS
Info: 27281 BONDS
Info: 20075 ANGLES
Info: 13065 DIHEDRALS
Info: 838 IMPROPERS
Info: 305 CROSSTERMS
Info: 0 EXCLUSIONS
Info: 35964 RIGID BONDS
Info: 79425 DEGREES OF FREEDOM
Info: 13686 HYDROGEN GROUPS
Info: 4 ATOMS IN LARGEST HYDROGEN GROUP
Info: 13686 MIGRATION GROUPS
Info: 4 ATOMS IN LARGEST MIGRATION GROUP
Info: TOTAL MASS = 238614 amu
Info: TOTAL CHARGE = 3.67314e-06 e
Info: MASS DENSITY = 1.04714 g/cm^3
Info: ATOM DENSITY = 0.101647 atoms/A^3
Info: ADDED 60126 IMPLICIT EXCLUSIONS
Info: NONBONDED TABLE R-SQUARED SPACING: 0.0625
Info: NONBONDED TABLE SIZE: 769 POINTS
Info: REMOVING COM VELOCITY -0.00386667 0.0179135 0.0385376
Info: Updated CUDA force table with 4096 elements.
Info: Updated CUDA LJ table with 550 x 550 elements.
Info: Found 318 unique exclusion lists needing 1032 bytes
TCL: Running for 500000 steps
ETITLE: TS BOND ANGLE DIHED IMPRP ELECT VDW BOUNDARY MISC KINETIC TOTAL TEMP POTENTIAL TOTAL3 TEMPAVG PRESSURE GPRESSURE VOLUME PRESSAVG GPRESSAVG
ENERGY: 64000 1044.6287 2772.4440 2935.5681 159.1458 -137239.4802 10941.2507 0.0000 0.5735 23644.8709 -95740.9986 299.6195 -119385.8694 -95656.5219 299.6195 -53.4763 -51.6773 378398.5090 -53.4763 -51.6773
ENERGY: 164000 1033.6656 2813.1440 2914.7177 143.8292 -136609.4759 10502.0088 0.0000 0.8776 23823.7578 -95377.4753 301.8863 -119201.2331 -95341.2248 300.2954 -238.4449 -250.4686 377765.0132 3.7549 3.7922
ENERGY: 264000 971.9586 2755.3525 2928.5853 153.8058 -136181.5807 10386.6397 0.0000 0.8567 23706.2094 -95278.1726 300.3968 -118984.3820 -95185.6021 300.1184 -230.6424 -221.9313 376201.7416 0.8865 0.8591
ENERGY: 364000 996.1747 2762.7174 2906.1259 151.3321 -136724.1769 10670.6895 0.0000 1.6013 23676.7956 -95558.7405 300.0241 -119235.5361 -95388.6593 298.2205 206.0821 212.9485 375902.1393 -0.8175 -0.8738
ENERGY: 464000 966.4201 2780.5606 2896.2159 150.2830 -136365.6962 10556.1036 0.0000 1.1188 23651.4700 -95363.5244 299.7031 -119014.9943 -95284.1243 300.2350 41.8685 33.9522 377621.8049 5.7264 5.6886
ENERGY: 564000 1005.4728 2818.5661 2908.0727 165.0345 -136692.8741 10687.3723 0.0000 1.2696 23766.3759 -95340.7102 301.1592 -119107.0861 -95161.9775 299.8903 79.4754 89.7102 377362.7182 2.3312 2.3528
