Info: SIMULATION PARAMETERS:
Info: TIMESTEP               2
Info: NUMBER OF STEPS        0
Info: STEPS PER CYCLE        20
Info: PERIODIC CELL BASIS 1  90 0 0
Info: PERIODIC CELL BASIS 2  0 71 0
Info: PERIODIC CELL BASIS 3  0 0 65
Info: PERIODIC CELL CENTER   0 0 0
Info: WRAPPING WATERS AROUND PERIODIC BOUNDARIES ON OUTPUT.
Info: WRAPPING ALL CLUSTERS AROUND PERIODIC BOUNDARIES ON OUTPUT.
Info: FIRST LDB TIMESTEP     100
Info: LAST LDB TIMESTEP     -1
Info: HOM BACKGROUND SCALING 1
Info: PME BACKGROUND SCALING 1
Info: MIN ATOMS PER PATCH    40
Info: INITIAL TEMPERATURE    300
Info: CENTER OF MASS MOVING INITIALLY? NO
Info: DIELECTRIC             1
Info: EXCLUDE                SCALED ONE-FOUR
Info: 1-4 ELECTROSTATICS SCALED BY 1
Info: MODIFIED 1-4 VDW PARAMETERS WILL BE USED
Info: DCD FILENAME           heating-irun1.dcd
Info: DCD FREQUENCY          200
Info: DCD FIRST STEP         200
Info: DCD FILE WILL CONTAIN UNIT CELL DATA
Info: XST FILENAME           heating-irun1.xst
Info: XST FREQUENCY          1000
Info: NO VELOCITY DCD OUTPUT
Info: NO FORCE DCD OUTPUT
Info: OUTPUT FILENAME        heating-irun1
Info: BINARY OUTPUT FILES WILL BE USED
Info: RESTART FILENAME       heating-irun1.restart
Info: RESTART FREQUENCY      500
Info: BINARY RESTART FILES WILL BE USED
Info: SWITCHING ACTIVE
Info: VDW FORCE SWITCHING ACTIVE
Info: SWITCHING ON           10
Info: SWITCHING OFF          12
Info: PAIRLIST DISTANCE      16
Info: PAIRLIST SHRINK RATE   0.01
Info: PAIRLIST GROW RATE     0.01
Info: PAIRLIST TRIGGER       0.3
Info: PAIRLISTS PER CYCLE    2
Info: PAIRLISTS ENABLED
Info: MARGIN                 0.555
Info: HYDROGEN GROUP CUTOFF  2.5
Info: PATCH DIMENSION        19.055
Info: ENERGY OUTPUT STEPS    1000
Info: CROSSTERM ENERGY INCLUDED IN DIHEDRAL
Info: TIMING OUTPUT STEPS    1000
Info: LANGEVIN DYNAMICS ACTIVE
Info: LANGEVIN TEMPERATURE   300
Info: LANGEVIN USING BBK INTEGRATOR
Info: LANGEVIN DAMPING COEFFICIENT IS 1 INVERSE PS
Info: LANGEVIN DYNAMICS NOT APPLIED TO HYDROGENS
Info: LANGEVIN PISTON PRESSURE CONTROL ACTIVE
Info:        TARGET PRESSURE IS 1.01325 BAR
Info:     OSCILLATION PERIOD IS 50 FS
Info:             DECAY TIME IS 25 FS
Info:     PISTON TEMPERATURE IS 300 K
Info:       PRESSURE CONTROL IS GROUP-BASED
Info:    INITIAL STRAIN RATE IS 0 0 0
Info:       CELL FLUCTUATION IS ISOTROPIC
Info: PARTICLE MESH EWALD (PME) ACTIVE
Info: PME TOLERANCE               1e-06
Info: PME EWALD COEFFICIENT       0.257952
Info: PME INTERPOLATION ORDER     6
Info: PME GRID DIMENSIONS         96 72 72
Info: PME MAXIMUM GRID SPACING    1
Info: PME RECIPROCAL SUM OFFLOADED TO GPU
Info: FULL ELECTROSTATIC EVALUATION FREQUENCY      1
Info: USING VERLET I (r-RESPA) MTS SCHEME.
Info: C1 SPLITTING OF LONG RANGE ELECTROSTATICS
Info: PLACING ATOMS IN PATCHES BY HYDROGEN GROUPS
Info: RIGID BONDS TO HYDROGEN : ALL
Info:         ERROR TOLERANCE : 1e-08
Info:          MAX ITERATIONS : 100
Info: RIGID WATER USING SETTLE ALGORITHM
Info: RANDOM NUMBER SEED     1532649943
Info: USE HYDROGEN BONDS?    NO
Info: COORDINATE PDB         ../../step3_pbcsetup.pdb
Info: STRUCTURE FILE         ../../step3_pbcsetup.xplor.ext.psf
Info: PARAMETER file: CHARMM format!
Info: PARAMETERS             toppar/par_all36m_prot.prm
Info: PARAMETERS             toppar/par_all36_na.prm
Info: PARAMETERS             toppar/par_all36_carb.prm
Info: PARAMETERS             toppar/par_all36_lipid.prm
Info: PARAMETERS             toppar/par_all36_cgenff.prm
Info: PARAMETERS             toppar/toppar_water_ions.str
Info: PARAMETERS             toppar/toppar_dum_noble_gases.str
Info: PARAMETERS             toppar/toppar_all36_prot_fluoro_alkanes.str
Info: PARAMETERS             toppar/toppar_all36_prot_heme.str
Info: PARAMETERS             toppar/toppar_all36_prot_na_combined.str
Info: PARAMETERS             toppar/toppar_all36_prot_retinol.str
Info: PARAMETERS             toppar/toppar_all36_na_nad_ppi.str
Info: PARAMETERS             toppar/toppar_all36_na_rna_modified.str
Info: PARAMETERS             toppar/toppar_all36_lipid_bacterial.str
Info: PARAMETERS             toppar/toppar_all36_lipid_cardiolipin.str
Info: PARAMETERS             toppar/toppar_all36_lipid_cholesterol.str
Info: PARAMETERS             toppar/toppar_all36_lipid_inositol.str
Info: PARAMETERS             toppar/toppar_all36_lipid_lps.str
Info: PARAMETERS             toppar/toppar_all36_lipid_miscellaneous.str
Info: PARAMETERS             toppar/toppar_all36_lipid_model.str
Info: PARAMETERS             toppar/toppar_all36_lipid_prot.str
Info: PARAMETERS             toppar/toppar_all36_lipid_sphingo.str
Info: PARAMETERS             toppar/toppar_all36_lipid_yeast.str
Info: PARAMETERS             toppar/toppar_all36_lipid_hmmm.str
Info: PARAMETERS             toppar/toppar_all36_lipid_detergent.str
Info: PARAMETERS             toppar/toppar_all36_carb_glycolipid.str
Info: PARAMETERS             toppar/toppar_all36_carb_glycopeptide.str
Info: PARAMETERS             toppar/toppar_all36_carb_imlab.str
Info: PARAMETERS             toppar/toppar_all36_label_spin.str
Info: PARAMETERS             toppar/toppar_all36_label_fluorophore.str
Info: USING ARITHMETIC MEAN TO COMBINE L-J SIGMA PARAMETERS
Info: SUMMARY OF PARAMETERS:
Info: 1560 BONDS
Info: 4670 ANGLES
Info: 11987 DIHEDRAL
Info: 298 IMPROPER
Info: 10 CROSSTERM
Info: 550 VDW
Info: 45 VDW_PAIRS
Info: 0 NBTHOLE_PAIRS
Info: STRUCTURE SUMMARY:
Info: 38463 ATOMS
Info: 27281 BONDS
Info: 20075 ANGLES
Info: 13065 DIHEDRALS
Info: 838 IMPROPERS
Info: 305 CROSSTERMS
Info: 0 EXCLUSIONS
Info: 35964 RIGID BONDS
Info: 79425 DEGREES OF FREEDOM
Info: 13686 HYDROGEN GROUPS
Info: 4 ATOMS IN LARGEST HYDROGEN GROUP
Info: 13686 MIGRATION GROUPS
Info: 4 ATOMS IN LARGEST MIGRATION GROUP
Info: TOTAL MASS = 238614 amu
Info: TOTAL CHARGE = 3.67314e-06 e
Info: MASS DENSITY = 0.953983 g/cm^3
Info: ATOM DENSITY = 0.0926038 atoms/A^3
Info: ADDED 60126 IMPLICIT EXCLUSIONS
Info: NONBONDED TABLE R-SQUARED SPACING: 0.0625
Info: NONBONDED TABLE SIZE: 769 POINTS
Info: REMOVING COM VELOCITY -0.0750656 -0.0142745 0.0264649
Info: Updated CUDA force table with 4096 elements.
Info: Updated CUDA LJ table with 550 x 550 elements.
Info: Found 318 unique exclusion lists needing 1032 bytes
TCL: Minimizing for 3000 steps
ETITLE: TS BOND ANGLE DIHED IMPRP ELECT VDW BOUNDARY MISC KINETIC TOTAL TEMP POTENTIAL TOTAL3 TEMPAVG PRESSURE GPRESSURE VOLUME PRESSAVG GPRESSAVG
ENERGY: 0 2091.8426 1317.9063 2830.5448 31.1187 -134916.2486 243107.8470 0.0000 0.0000 0.0000 114463.0107 0.0000 114463.0107 114463.0107 0.0000 -2363.1817 -12139.4086 415350.0000 -2363.1817 -12139.4086
ENERGY: 600 309.5462 983.5649 2576.9670 33.5810 -158891.0938 14657.1950 0.0000 0.0000 0.0000 -140330.2397 0.0000 -140330.2397 -140330.2397 0.0000 -2661.0601 -23528.4116 415350.0000 -2661.0601 -23528.4116
ENERGY: 1200 305.2130 957.0476 2557.8345 31.4536 -163982.1422 16056.7571 0.0000 0.0000 0.0000 -144073.8364 0.0000 -144073.8364 -144073.8364 0.0000 -2667.4220 -24244.3687 415350.0000 -2667.4220 -24244.3687
ENERGY: 1800 303.2090 959.6394 2553.1458 31.2469 -165527.3312 16405.2337 0.0000 0.0000 0.0000 -145274.8564 0.0000 -145274.8564 -145274.8564 0.0000 -2652.9578 -24448.1144 415350.0000 -2652.9578 -24448.1144
ENERGY: 2400 302.8650 965.5809 2559.6632 31.1788 -166466.4200 16710.6458 0.0000 0.0000 0.0000 -145896.4862 0.0000 -145896.4862 -145896.4862 0.0000 -2658.6679 -24585.7456 415350.0000 -2658.6679 -24585.7456
ENERGY: 3000 304.6726 968.4687 2552.4112 31.0517 -167083.8352 16899.1624 0.0000 0.0000 0.0000 -146328.0687 0.0000 -146328.0687 -146328.0687 0.0000 -2661.8985 -24676.4297 415350.0000 -2661.8985 -24676.4297
TCL: Setting parameter langevinTemp to 0
TCL: Running for 1000 steps
ETITLE: TS BOND ANGLE DIHED IMPRP ELECT VDW BOUNDARY MISC KINETIC TOTAL TEMP POTENTIAL TOTAL3 TEMPAVG PRESSURE GPRESSURE VOLUME PRESSAVG GPRESSAVG
ENERGY: 3000 304.6726 968.4687 2552.4112 31.0517 -167083.8352 16899.1624 0.0000 0.0000 0.0000 -146328.0687 0.0000 -146328.0687 -146328.2889 0.0000 -4242.5540 -4242.5829 415350.0000 -4242.5540 -4242.5829
ENERGY: 4000 274.2510 968.8517 2581.4016 37.5574 -173912.2590 21127.1215 0.0000 0.0000 480.3951 -148442.6808 6.0874 -148923.0759 -148442.0297 7.0910 -64.1974 -64.1624 373263.0593 0.7248 0.7497
TCL: Setting parameter langevinTemp to 5
TCL: Running for 1000 steps
ETITLE: TS BOND ANGLE DIHED IMPRP ELECT VDW BOUNDARY MISC KINETIC TOTAL TEMP POTENTIAL TOTAL3 TEMPAVG PRESSURE GPRESSURE VOLUME PRESSAVG GPRESSAVG
ENERGY: 4000 274.2510 968.8517 2581.4016 37.5574 -173912.2590 21127.1215 0.0000 0.0000 397.0718 -148526.0040 5.0316 -148923.0759 -148524.5715 5.0316 -92.4324 -92.3575 373263.0593 -92.4324 -92.3575
ENERGY: 5000 280.8054 981.5032 2581.6250 37.5130 -174340.7170 21136.0174 0.0000 0.0000 426.0530 -148897.2000 5.3988 -149323.2530 -148895.8945 5.5603 -50.3087 -50.6448 372056.7476 -0.0929 -0.0850
TCL: Setting parameter langevinTemp to 10
TCL: Running for 1000 steps
ETITLE: TS BOND ANGLE DIHED IMPRP ELECT VDW BOUNDARY MISC KINETIC TOTAL TEMP POTENTIAL TOTAL3 TEMPAVG PRESSURE GPRESSURE VOLUME PRESSAVG GPRESSAVG
ENERGY: 5000 280.8054 981.5032 2581.6250 37.5130 -174340.7170 21136.0174 0.0000 0.0000 790.6584 -148532.5946 10.0189 -149323.2530 -148531.1979 10.0189 -35.3161 -35.8836 372056.7476 -35.3161 -35.8836
ENERGY: 6000 296.9402 1006.7564 2578.7827 40.5611 -174237.7064 21138.0256 0.0000 0.0000 711.2568 -148465.3836 9.0128 -149176.6404 -148462.6158 8.4776 -40.0557 -39.6250 371619.0381 -1.2149 -1.2151
TCL: Setting parameter langevinTemp to 15
TCL: Running for 1000 steps
ETITLE: TS BOND ANGLE DIHED IMPRP ELECT VDW BOUNDARY MISC KINETIC TOTAL TEMP POTENTIAL TOTAL3 TEMPAVG PRESSURE GPRESSURE VOLUME PRESSAVG GPRESSAVG
ENERGY: 6000 296.9402 1006.7564 2578.7827 40.5611 -174237.7064 21138.0256 0.0000 0.0000 1184.6719 -147991.9685 15.0117 -149176.6404 -147989.3237 15.0117 -15.5807 -15.6658 371619.0381 -15.5807 -15.6658
ENERGY: 7000 295.1689 1044.0282 2585.8737 41.7120 -174201.0940 21320.3581 0.0000 0.0000 1071.3051 -147842.6481 13.5752 -148913.9533 -147838.5004 12.9847 286.4349 286.7859 371281.9150 2.1576 2.1405
TCL: Setting parameter langevinTemp to 20
TCL: Running for 1000 steps
ETITLE: TS BOND ANGLE DIHED IMPRP ELECT VDW BOUNDARY MISC KINETIC TOTAL TEMP POTENTIAL TOTAL3 TEMPAVG PRESSURE GPRESSURE VOLUME PRESSAVG GPRESSAVG
ENERGY: 7000 295.1689 1044.0282 2585.8737 41.7120 -174201.0940 21320.3581 0.0000 0.0000 1588.7806 -147325.1727 20.1325 -148913.9532 -147321.1965 20.1325 311.7277 312.0375 371281.9150 311.7277 312.0375
ENERGY: 8000 310.6473 1075.3253 2591.1138 43.3366 -173816.9623 21151.3107 0.0000 0.0000 1456.2789 -147188.9498 18.4535 -148645.2287 -147183.1992 17.8798 202.3677 201.5860 371158.6385 -1.0845 -1.1048
TCL: Setting parameter langevinTemp to 25
TCL: Running for 1000 steps
ETITLE: TS BOND ANGLE DIHED IMPRP ELECT VDW BOUNDARY MISC KINETIC TOTAL TEMP POTENTIAL TOTAL3 TEMPAVG PRESSURE GPRESSURE VOLUME PRESSAVG GPRESSAVG
ENERGY: 8000 310.6473 1075.3253 2591.1138 43.3366 -173816.9623 21151.3107 0.0000 0.0000 1975.6944 -146669.5343 25.0353 -148645.2287 -146664.0373 25.0353 229.0053 229.1943 371158.6385 229.0053 229.1943
ENERGY: 9000 330.5238 1097.3074 2607.3804 41.7412 -173362.9963 20895.6226 0.0000 0.0000 1859.5598 -146530.8611 23.5637 -148390.4209 -146523.3102 22.8923 9.0828 8.9149 371042.1753 0.6328 0.6402
TCL: Setting parameter langevinTemp to 30
TCL: Running for 1000 steps
ETITLE: TS BOND ANGLE DIHED IMPRP ELECT VDW BOUNDARY MISC KINETIC TOTAL TEMP POTENTIAL TOTAL3 TEMPAVG PRESSURE GPRESSURE VOLUME PRESSAVG GPRESSAVG
ENERGY: 9000 330.5238 1097.3074 2607.3804 41.7412 -173362.9963 20895.6226 0.0000 0.0000 2358.1985 -146032.2224 29.8823 -148390.4209 -146024.9906 29.8823 31.2689 31.3519 371042.1753 31.2689 31.3519
ENERGY: 10000 348.4123 1115.6976 2605.6850 47.3134 -172953.2091 20705.5453 0.0000 0.0000 2254.3438 -145876.2117 28.5663 -148130.5555 -145867.6494 27.8653 -66.5756 -66.8630 371040.4656 -1.2942 -1.2839
TCL: Setting parameter langevinTemp to 35
TCL: Running for 1000 steps
ETITLE: TS BOND ANGLE DIHED IMPRP ELECT VDW BOUNDARY MISC KINETIC TOTAL TEMP POTENTIAL TOTAL3 TEMPAVG PRESSURE GPRESSURE VOLUME PRESSAVG GPRESSAVG
ENERGY: 10000 348.4123 1115.6976 2605.6850 47.3134 -172953.2092 20705.5453 0.0000 0.0000 2786.9218 -145343.6338 35.3149 -148130.5556 -145334.7764 35.3149 -39.7368 -40.0487 371040.4656 -39.7368 -40.0487
ENERGY: 11000 361.0455 1151.3284 2614.8349 47.7495 -172593.2024 20580.7469 0.0000 0.0000 2674.8429 -145162.6543 33.8947 -147837.4972 -145151.5916 33.0404 -90.6528 -90.2070 371013.2268 2.3489 2.3616
TCL: Setting parameter langevinTemp to 40
TCL: Running for 1000 steps
ETITLE: TS BOND ANGLE DIHED IMPRP ELECT VDW BOUNDARY MISC KINETIC TOTAL TEMP POTENTIAL TOTAL3 TEMPAVG PRESSURE GPRESSURE VOLUME PRESSAVG GPRESSAVG
ENERGY: 11000 361.0455 1151.3284 2614.8349 47.7495 -172593.2024 20580.7469 0.0000 0.0000 3143.6795 -144693.8177 39.8356 -147837.4972 -144683.5251 39.8356 -67.2109 -66.9355 371013.2268 -67.2109 -66.9355
ENERGY: 12000 359.3836 1189.5401 2624.3586 57.3457 -172489.5369 20661.7027 0.0000 0.0000 3048.0800 -144549.1262 38.6242 -147597.2062 -144536.9495 37.8487 173.6069 173.1419 370478.8986 3.6801 3.6640
TCL: Setting parameter langevinTemp to 45
TCL: Running for 1000 steps
ETITLE: TS BOND ANGLE DIHED IMPRP ELECT VDW BOUNDARY MISC KINETIC TOTAL TEMP POTENTIAL TOTAL3 TEMPAVG PRESSURE GPRESSURE VOLUME PRESSAVG GPRESSAVG
ENERGY: 12000 359.3836 1189.5401 2624.3586 57.3457 -172489.5369 20661.7027 0.0000 0.0000 3550.3643 -144046.8419 44.9890 -147597.2062 -144034.8630 44.9890 199.5799 198.7138 370478.8986 199.5799 198.7138
ENERGY: 13000 379.6985 1235.9614 2633.2245 50.9943 -172169.4957 20545.1640 0.0000 0.0000 3469.0814 -143855.3716 43.9590 -147324.4530 -143841.8657 42.9826 158.8506 158.9450 370055.5588 4.9924 4.9672
TCL: Setting parameter langevinTemp to 50
TCL: Running for 1000 steps
ETITLE: TS BOND ANGLE DIHED IMPRP ELECT VDW BOUNDARY MISC KINETIC TOTAL TEMP POTENTIAL TOTAL3 TEMPAVG PRESSURE GPRESSURE VOLUME PRESSAVG GPRESSAVG
ENERGY: 13000 379.6985 1235.9614 2633.2245 50.9943 -172169.4957 20545.1640 0.0000 0.0000 3924.6428 -143399.8102 49.7317 -147324.4530 -143386.8798 49.7317 182.7236 182.5542 370055.5588 182.7236 182.5542
ENERGY: 14000 391.5510 1261.6561 2639.4530 55.9631 -171855.5038 20422.0712 0.0000 0.0000 3867.7239 -143217.0855 49.0104 -147084.8095 -143202.4691 47.9230 206.1736 205.3000 369778.3599 -0.5900 -0.5894
TCL: Setting parameter langevinTemp to 55
TCL: Running for 1000 steps
ETITLE: TS BOND ANGLE DIHED IMPRP ELECT VDW BOUNDARY MISC KINETIC TOTAL TEMP POTENTIAL TOTAL3 TEMPAVG PRESSURE GPRESSURE VOLUME PRESSAVG GPRESSAVG
ENERGY: 14000 391.5510 1261.6561 2639.4530 55.9631 -171855.5037 20422.0712 0.0000 0.0000 4378.3622 -142706.4472 55.4811 -147084.8094 -142691.6415 55.4811 228.6769 228.5477 369778.3599 228.6769 228.5477
ENERGY: 15000 407.5848 1286.7748 2638.3198 58.3714 -171034.7075 19872.6638 0.0000 0.0000 4218.0336 -142552.9594 53.4494 -146770.9930 -142536.9525 52.8767 -233.0138 -234.2893 369738.6105 -1.3532 -1.3447
TCL: Setting parameter langevinTemp to 60
TCL: Running for 1000 steps
ETITLE: TS BOND ANGLE DIHED IMPRP ELECT VDW BOUNDARY MISC KINETIC TOTAL TEMP POTENTIAL TOTAL3 TEMPAVG PRESSURE GPRESSURE VOLUME PRESSAVG GPRESSAVG
ENERGY: 15000 407.5848 1286.7748 2638.3198 58.3714 -171034.7075 19872.6638 0.0000 0.0000 4751.9818 -142019.0112 60.2154 -146770.9930 -142002.5988 60.2154 -204.3750 -205.2033 369738.6105 -204.3750 -205.2033
ENERGY: 16000 407.1728 1309.2613 2650.3447 56.3938 -171225.8108 20312.3232 0.0000 0.0000 4640.9727 -141849.3421 58.8088 -146490.3149 -141831.2282 58.0045 219.7800 218.1380 369272.0103 -1.0535 -1.0175
TCL: Setting parameter langevinTemp to 65
TCL: Running for 1000 steps
ETITLE: TS BOND ANGLE DIHED IMPRP ELECT VDW BOUNDARY MISC KINETIC TOTAL TEMP POTENTIAL TOTAL3 TEMPAVG PRESSURE GPRESSURE VOLUME PRESSAVG GPRESSAVG
ENERGY: 16000 407.1728 1309.2613 2650.3447 56.3938 -171225.8108 20312.3232 0.0000 0.0000 5137.9061 -141352.4087 65.1057 -146490.3149 -141334.1231 65.1057 246.0441 244.4197 369272.0103 246.0441 244.4197
ENERGY: 17000 437.5193 1346.6391 2645.7752 63.0740 -170401.7468 19685.0383 0.0000 0.0000 5017.5188 -141206.1822 63.5802 -146223.7010 -141186.8369 63.1340 -161.7490 -159.9638 369057.8769 -1.7783 -1.7518
TCL: Setting parameter langevinTemp to 70
TCL: Running for 1000 steps
ETITLE: TS BOND ANGLE DIHED IMPRP ELECT VDW BOUNDARY MISC KINETIC TOTAL TEMP POTENTIAL TOTAL3 TEMPAVG PRESSURE GPRESSURE VOLUME PRESSAVG GPRESSAVG
ENERGY: 17000 437.5193 1346.6391 2645.7752 63.0740 -170401.7468 19685.0383 0.0000 0.0000 5484.1768 -140739.5242 69.4936 -146223.7010 -140719.8653 69.4936 -136.1478 -135.8479 369057.8769 -136.1478 -135.8479
ENERGY: 18000 453.4394 1379.4545 2661.8056 63.9680 -170137.0465 19603.4656 0.0000 0.0000 5415.5084 -140559.4050 68.6234 -145974.9133 -140537.1563 67.7330 -104.8729 -104.3920 369132.3768 3.5378 3.5218
TCL: Setting parameter langevinTemp to 75
TCL: Running for 1000 steps
ETITLE: TS BOND ANGLE DIHED IMPRP ELECT VDW BOUNDARY MISC KINETIC TOTAL TEMP POTENTIAL TOTAL3 TEMPAVG PRESSURE GPRESSURE VOLUME PRESSAVG GPRESSAVG
ENERGY: 18000 453.4394 1379.4545 2661.8056 63.9680 -170137.0465 19603.4656 0.0000 0.0000 5990.5274 -139984.3859 75.9099 -145974.9133 -139963.2708 75.9099 -69.1499 -70.4830 369132.3768 -69.1499 -70.4830
ENERGY: 19000 456.1743 1402.9953 2670.1418 62.8351 -169995.6494 19736.8973 0.0000 0.0000 5822.8262 -139843.7794 73.7848 -145666.6057 -139821.5968 73.2459 139.7114 138.7383 369198.4226 5.0081 5.0011
TCL: Setting parameter langevinTemp to 80
TCL: Running for 1000 steps
ETITLE: TS BOND ANGLE DIHED IMPRP ELECT VDW BOUNDARY MISC KINETIC TOTAL TEMP POTENTIAL TOTAL3 TEMPAVG PRESSURE GPRESSURE VOLUME PRESSAVG GPRESSAVG
ENERGY: 19000 456.1743 1402.9953 2670.1418 62.8351 -169995.6494 19736.8973 0.0000 0.0000 6299.6486 -139366.9571 79.8269 -145666.6057 -139344.3272 79.8269 169.3879 167.6203 369198.4226 169.3879 167.6203
ENERGY: 20000 461.4812 1463.1946 2677.0107 61.1390 -169326.1923 19209.3873 0.0000 0.0000 6225.4115 -139228.5679 78.8862 -145453.9795 -139204.2755 77.9709 -276.0536 -274.7922 368666.4645 3.4132 3.4476
TCL: Setting parameter langevinTemp to 85
TCL: Running for 1000 steps
ETITLE: TS BOND ANGLE DIHED IMPRP ELECT VDW BOUNDARY MISC KINETIC TOTAL TEMP POTENTIAL TOTAL3 TEMPAVG PRESSURE GPRESSURE VOLUME PRESSAVG GPRESSAVG
ENERGY: 20000 461.4812 1463.1946 2677.0107 61.1390 -169326.1923 19209.3873 0.0000 0.0000 6705.7842 -138748.1953 84.9733 -145453.9794 -138723.6391 84.9733 -246.8123 -246.4190 368666.4645 -246.8123 -246.4190
ENERGY: 21000 452.1545 1488.3075 2688.1648 67.9508 -169073.2354 19235.4043 0.0000 0.0000 6635.6693 -138505.5843 84.0849 -145141.2536 -138477.6907 82.8024 -46.5261 -44.7728 368321.1681 -1.7732 -1.7954
TCL: Setting parameter langevinTemp to 90
TCL: Running for 1000 steps
ETITLE: TS BOND ANGLE DIHED IMPRP ELECT VDW BOUNDARY MISC KINETIC TOTAL TEMP POTENTIAL TOTAL3 TEMPAVG PRESSURE GPRESSURE VOLUME PRESSAVG GPRESSAVG
ENERGY: 21000 452.1545 1488.3075 2688.1648 67.9508 -169073.2354 19235.4043 0.0000 0.0000 7067.8758 -138073.3778 89.5616 -145141.2536 -138047.1852 89.5616 -24.8849 -25.2933 368321.1681 -24.8849 -25.2933
ENERGY: 22000 461.4497 1523.3013 2695.9063 72.8657 -168806.5690 19162.3334 0.0000 0.0000 7024.7702 -137865.9424 89.0154 -144890.7126 -137835.6996 87.7776 99.5304 97.4418 368268.1082 1.0723 1.1121
TCL: Setting parameter langevinTemp to 95
TCL: Running for 1000 steps
ETITLE: TS BOND ANGLE DIHED IMPRP ELECT VDW BOUNDARY MISC KINETIC TOTAL TEMP POTENTIAL TOTAL3 TEMPAVG PRESSURE GPRESSURE VOLUME PRESSAVG GPRESSAVG
ENERGY: 22000 461.4497 1523.3013 2695.9063 72.8657 -168806.5690 19162.3334 0.0000 0.0000 7471.0670 -137419.6456 94.6707 -144890.7126 -137392.3416 94.6707 123.5126 120.6472 368268.1082 123.5126 120.6472
ENERGY: 23000 494.3447 1544.4117 2690.6691 71.7248 -168793.6451 19373.3927 0.0000 0.0000 7312.3304 -137306.7717 92.6593 -144619.1021 -137279.7819 92.4031 271.5556 273.2741 367714.2961 -0.2004 -0.2570
TCL: Setting parameter langevinTemp to 100
TCL: Running for 1000 steps
ETITLE: TS BOND ANGLE DIHED IMPRP ELECT VDW BOUNDARY MISC KINETIC TOTAL TEMP POTENTIAL TOTAL3 TEMPAVG PRESSURE GPRESSURE VOLUME PRESSAVG GPRESSAVG
ENERGY: 23000 494.3447 1544.4117 2690.6691 71.7248 -168793.6451 19373.3927 0.0000 0.0000 7910.0438 -136709.0583 100.2333 -144619.1021 -136680.5719 100.2333 302.1652 303.0048 367714.2961 302.1652 303.0048
ENERGY: 24000 490.8631 1522.4642 2705.9596 68.7361 -168419.6721 19371.6306 0.0000 0.0000 7769.0686 -136490.9499 98.4469 -144260.0185 -136461.6074 97.8633 393.8803 391.0438 367452.0278 6.2973 6.3463
TCL: Setting parameter langevinTemp to 105
TCL: Running for 1000 steps
ETITLE: TS BOND ANGLE DIHED IMPRP ELECT VDW BOUNDARY MISC KINETIC TOTAL TEMP POTENTIAL TOTAL3 TEMPAVG PRESSURE GPRESSURE VOLUME PRESSAVG GPRESSAVG
ENERGY: 24000 490.8631 1522.4642 2705.9596 68.7361 -168419.6721 19371.6306 0.0000 0.0000 8259.2470 -136000.7716 104.6583 -144260.0186 -135970.4488 104.6583 414.8820 414.6778 367452.0278 414.8820 414.6778
ENERGY: 25000 549.6290 1611.7025 2719.8677 74.3463 -167707.9352 18777.1066 0.0000 0.0000 8168.7608 -135806.5223 103.5117 -143975.2831 -135775.4297 102.7364 -191.5048 -191.3126 368062.6738 2.8104 2.8132
TCL: Setting parameter langevinTemp to 110
TCL: Running for 1000 steps
ETITLE: TS BOND ANGLE DIHED IMPRP ELECT VDW BOUNDARY MISC KINETIC TOTAL TEMP POTENTIAL TOTAL3 TEMPAVG PRESSURE GPRESSURE VOLUME PRESSAVG GPRESSAVG
ENERGY: 25000 549.6290 1611.7025 2719.8677 74.3463 -167707.9352 18777.1066 0.0000 0.0000 8697.4982 -135277.7849 110.2117 -143975.2831 -135246.0511 110.2117 -160.9781 -160.0911 368062.6738 -160.9781 -160.0911
ENERGY: 26000 533.6552 1649.4385 2709.5072 86.1659 -167660.1219 19071.9432 0.0000 0.0000 8551.0016 -135058.4103 108.3553 -143609.4119 -135025.2841 107.4670 191.8340 192.3504 368083.3120 3.3499 3.4151
TCL: Setting parameter langevinTemp to 115
TCL: Running for 1000 steps
ETITLE: TS BOND ANGLE DIHED IMPRP ELECT VDW BOUNDARY MISC KINETIC TOTAL TEMP POTENTIAL TOTAL3 TEMPAVG PRESSURE GPRESSURE VOLUME PRESSAVG GPRESSAVG
ENERGY: 26000 533.6552 1649.4385 2709.5072 86.1659 -167660.1219 19071.9432 0.0000 0.0000 9090.9045 -134518.5074 115.1968 -143609.4119 -134485.9476 115.1968 209.0371 209.3780 368083.3120 209.0371 209.3780
ENERGY: 27000 549.6451 1703.4156 2734.5579 76.3895 -166973.0689 18620.5353 0.0000 0.0000 9012.7204 -134275.8051 114.2060 -143288.5255 -134241.3837 112.8987 -12.1816 -8.3977 368320.4909 -0.5528 -0.5204
TCL: Setting parameter langevinTemp to 120
TCL: Running for 1000 steps
ETITLE: TS BOND ANGLE DIHED IMPRP ELECT VDW BOUNDARY MISC KINETIC TOTAL TEMP POTENTIAL TOTAL3 TEMPAVG PRESSURE GPRESSURE VOLUME PRESSAVG GPRESSAVG
ENERGY: 27000 549.6451 1703.4156 2734.5579 76.3895 -166973.0689 18620.5353 0.0000 0.0000 9474.5271 -133813.9984 120.0579 -143288.5255 -133779.6321 120.0579 10.6505 12.6887 368320.4909 10.6505 12.6887
ENERGY: 28000 585.7484 1722.2612 2737.5449 84.2654 -166341.2997 18245.8637 0.0000 0.0000 9368.2218 -133597.3942 118.7108 -142965.6161 -133558.6285 117.6606 -225.2994 -231.1866 368357.6180 0.3697 0.4023
TCL: Setting parameter langevinTemp to 125
TCL: Running for 1000 steps
ETITLE: TS BOND ANGLE DIHED IMPRP ELECT VDW BOUNDARY MISC KINETIC TOTAL TEMP POTENTIAL TOTAL3 TEMPAVG PRESSURE GPRESSURE VOLUME PRESSAVG GPRESSAVG
ENERGY: 28000 585.7484 1722.2612 2737.5449 84.2654 -166341.2997 18245.8637 0.0000 0.0000 9829.8832 -133135.7328 124.5608 -142965.6160 -133098.9527 124.5608 -195.3417 -199.1556 368357.6180 -195.3417 -199.1556
ENERGY: 29000 566.7808 1739.2189 2744.7805 82.8476 -166252.0163 18506.3753 0.0000 0.0000 9646.9199 -132965.0933 122.2424 -142612.0132 -132931.7364 121.7721 74.5799 75.6099 367501.1024 1.3604 1.3691
TCL: Setting parameter langevinTemp to 130
TCL: Running for 1000 steps
ETITLE: TS BOND ANGLE DIHED IMPRP ELECT VDW BOUNDARY MISC KINETIC TOTAL TEMP POTENTIAL TOTAL3 TEMPAVG PRESSURE GPRESSURE VOLUME PRESSAVG GPRESSAVG
ENERGY: 29000 566.7808 1739.2189 2744.7805 82.8476 -166252.0163 18506.3753 0.0000 0.0000 10247.7664 -132364.2468 129.8561 -142612.0133 -132327.7948 129.8561 116.1269 115.2793 367501.1024 116.1269 115.2793
ENERGY: 30000 593.6543 1741.2431 2749.6164 89.4052 -165742.4185 18344.7438 0.0000 0.0000 10067.2492 -132156.5066 127.5687 -142223.7557 -132117.6227 126.9189 178.6648 181.0001 367866.3795 5.1626 5.1101
TCL: Setting parameter langevinTemp to 135
TCL: Running for 1000 steps
ETITLE: TS BOND ANGLE DIHED IMPRP ELECT VDW BOUNDARY MISC KINETIC TOTAL TEMP POTENTIAL TOTAL3 TEMPAVG PRESSURE GPRESSURE VOLUME PRESSAVG GPRESSAVG
ENERGY: 30000 593.6543 1741.2431 2749.6164 89.4052 -165742.4185 18344.7438 0.0000 0.0000 10714.1913 -131509.5645 135.7665 -142223.7557 -131471.2909 135.7665 214.2948 214.8164 367866.3795 214.2948 214.8164
ENERGY: 31000 620.8908 1827.5469 2743.5883 87.9968 -165482.6370 18409.6412 0.0000 0.0000 10565.8251 -131227.1479 133.8864 -141792.9730 -131187.4701 132.9059 343.8868 345.7630 367272.4459 -1.0454 -1.0425
TCL: Setting parameter langevinTemp to 140
TCL: Running for 1000 steps
ETITLE: TS BOND ANGLE DIHED IMPRP ELECT VDW BOUNDARY MISC KINETIC TOTAL TEMP POTENTIAL TOTAL3 TEMPAVG PRESSURE GPRESSURE VOLUME PRESSAVG GPRESSAVG
ENERGY: 31000 620.8908 1827.5469 2743.5883 87.9968 -165482.6370 18409.6412 0.0000 0.0000 11093.7964 -130699.1766 140.5767 -141792.9730 -130659.4073 140.5767 378.3912 378.0809 367272.4459 378.3912 378.0809
ENERGY: 32000 624.5367 1789.7640 2765.8528 95.1292 -164604.3600 17867.9854 0.0000 0.0000 10880.8184 -130580.2735 137.8779 -141461.0919 -130540.6582 137.3727 -19.5916 -16.3398 367071.7717 2.0507 2.0294
TCL: Setting parameter langevinTemp to 145
TCL: Running for 1000 steps
ETITLE: TS BOND ANGLE DIHED IMPRP ELECT VDW BOUNDARY MISC KINETIC TOTAL TEMP POTENTIAL TOTAL3 TEMPAVG PRESSURE GPRESSURE VOLUME PRESSAVG GPRESSAVG
ENERGY: 32000 624.5367 1789.7640 2765.8528 95.1292 -164604.3600 17867.9854 0.0000 0.0000 11427.8877 -130033.2043 144.8102 -141461.0919 -129990.7932 144.8102 10.9647 13.8306 367071.7717 10.9647 13.8306
ENERGY: 33000 653.0076 1815.9778 2773.5990 92.1059 -163827.0787 17363.1475 0.0000 0.0000 11278.1770 -129851.0639 142.9131 -141129.2409 -129803.8679 142.1047 -604.4244 -601.6084 367519.7455 4.7131 4.7132
TCL: Setting parameter langevinTemp to 150
TCL: Running for 1000 steps
ETITLE: TS BOND ANGLE DIHED IMPRP ELECT VDW BOUNDARY MISC KINETIC TOTAL TEMP POTENTIAL TOTAL3 TEMPAVG PRESSURE GPRESSURE VOLUME PRESSAVG GPRESSAVG
ENERGY: 33000 653.0076 1815.9778 2773.5990 92.1059 -163827.0787 17363.1475 0.0000 0.0000 11809.5590 -129319.6819 149.6466 -141129.2409 -129276.1362 149.6466 -566.0321 -564.3093 367519.7455 -566.0321 -564.3093
ENERGY: 34000 637.5864 1890.9121 2773.6315 102.3136 -163487.0929 17387.5465 0.0000 0.0000 11658.7786 -129036.3241 147.7360 -140695.1027 -128992.7984 146.5460 -236.8154 -236.1617 367117.5889 2.8760 2.8810
TCL: Setting parameter langevinTemp to 155
TCL: Running for 1000 steps
ETITLE: TS BOND ANGLE DIHED IMPRP ELECT VDW BOUNDARY MISC KINETIC TOTAL TEMP POTENTIAL TOTAL3 TEMPAVG PRESSURE GPRESSURE VOLUME PRESSAVG GPRESSAVG
ENERGY: 34000 637.5864 1890.9121 2773.6315 102.3136 -163487.0929 17387.5465 0.0000 0.0000 12206.2613 -128488.8414 154.6735 -140695.1027 -128444.4880 154.6735 -215.2196 -214.5486 367117.5889 -215.2196 -214.5486
ENERGY: 35000 663.3271 1894.7856 2769.2963 100.7683 -162934.8396 17281.2787 0.0000 0.0000 12140.5197 -128084.8640 153.8404 -140225.3837 -128034.1701 152.1334 -243.4076 -244.0893 367484.1508 -0.1760 -0.1450
TCL: Setting parameter langevinTemp to 160
TCL: Running for 1000 steps
ETITLE: TS BOND ANGLE DIHED IMPRP ELECT VDW BOUNDARY MISC KINETIC TOTAL TEMP POTENTIAL TOTAL3 TEMPAVG PRESSURE GPRESSURE VOLUME PRESSAVG GPRESSAVG
ENERGY: 35000 663.3271 1894.7856 2769.2963 100.7683 -162934.8396 17281.2787 0.0000 0.0000 12603.2690 -127622.1147 159.7042 -140225.3837 -127575.0789 159.7042 -216.1671 -217.7527 367484.1508 -216.1671 -217.7527
ENERGY: 36000 639.9531 1918.6951 2773.5676 102.2395 -162245.2243 17137.3420 0.0000 0.0000 12403.5667 -127269.8604 157.1737 -139673.4271 -127222.2621 156.6591 -95.8092 -97.2366 366507.7537 0.9903 0.9977
TCL: Setting parameter langevinTemp to 165
TCL: Running for 1000 steps
ETITLE: TS BOND ANGLE DIHED IMPRP ELECT VDW BOUNDARY MISC KINETIC TOTAL TEMP POTENTIAL TOTAL3 TEMPAVG PRESSURE GPRESSURE VOLUME PRESSAVG GPRESSAVG
ENERGY: 36000 639.9531 1918.6951 2773.5676 102.2395 -162245.2244 17137.3420 0.0000 0.0000 13094.2731 -126579.1540 165.9260 -139673.4271 -126532.7878 165.9260 -54.2090 -54.9150 366507.7537 -54.2090 -54.9150
ENERGY: 37000 707.3070 1985.3973 2791.0719 97.1751 -161486.2695 16775.9237 0.0000 0.0000 12804.9074 -126324.4871 162.2593 -139129.3945 -126277.0347 162.4414 -167.4508 -170.0622 366475.4721 -2.4483 -2.4303
TCL: Setting parameter langevinTemp to 170
TCL: Running for 1000 steps
ETITLE: TS BOND ANGLE DIHED IMPRP ELECT VDW BOUNDARY MISC KINETIC TOTAL TEMP POTENTIAL TOTAL3 TEMPAVG PRESSURE GPRESSURE VOLUME PRESSAVG GPRESSAVG
ENERGY: 37000 707.3070 1985.3973 2791.0719 97.1751 -161486.2695 16775.9237 0.0000 0.0000 13393.7591 -125735.6354 169.7210 -139129.3945 -125690.1195 169.7210 -126.2957 -129.9377 366475.4721 -126.2957 -129.9377
ENERGY: 38000 690.3723 2018.5399 2784.6130 109.8709 -161382.2592 16893.0581 0.0000 0.0000 13374.3634 -125511.4416 169.4752 -138885.8050 -125456.9354 167.5652 73.6195 71.1599 365046.5667 -2.2775 -2.2439
TCL: Setting parameter langevinTemp to 175
TCL: Running for 1000 steps
ETITLE: TS BOND ANGLE DIHED IMPRP ELECT VDW BOUNDARY MISC KINETIC TOTAL TEMP POTENTIAL TOTAL3 TEMPAVG PRESSURE GPRESSURE VOLUME PRESSAVG GPRESSAVG
ENERGY: 38000 690.3723 2018.5399 2784.6130 109.8709 -161382.2592 16893.0581 0.0000 0.0000 13823.8518 -125061.9532 175.1710 -138885.8050 -125010.8287 175.1710 88.5066 85.6506 365046.5667 88.5066 85.6506
ENERGY: 39000 693.3705 2017.4285 2794.2012 101.3352 -160824.6418 16744.3144 0.0000 0.0000 13663.3634 -124810.6286 173.1374 -138473.9920 -124753.2745 171.8167 173.8009 173.9375 365143.4561 4.0967 4.0825
TCL: Setting parameter langevinTemp to 180
TCL: Running for 1000 steps
ETITLE: TS BOND ANGLE DIHED IMPRP ELECT VDW BOUNDARY MISC KINETIC TOTAL TEMP POTENTIAL TOTAL3 TEMPAVG PRESSURE GPRESSURE VOLUME PRESSAVG GPRESSAVG
ENERGY: 39000 693.3705 2017.4285 2794.2012 101.3352 -160824.6418 16744.3144 0.0000 0.0000 14299.8485 -124174.1436 181.2027 -138473.9920 -124122.3423 181.2027 207.5716 208.0781 365143.4561 207.5716 208.0781
ENERGY: 40000 738.2209 2108.6874 2808.2836 107.0389 -160137.5462 16387.6102 0.0000 0.0000 14044.8733 -123942.8320 177.9717 -137987.7053 -123886.4460 176.8308 -156.1568 -154.1385 365157.6023 3.9522 3.9218
TCL: Setting parameter langevinTemp to 185
TCL: Running for 1000 steps
ETITLE: TS BOND ANGLE DIHED IMPRP ELECT VDW BOUNDARY MISC KINETIC TOTAL TEMP POTENTIAL TOTAL3 TEMPAVG PRESSURE GPRESSURE VOLUME PRESSAVG GPRESSAVG
ENERGY: 40000 738.2209 2108.6874 2808.2836 107.0389 -160137.5462 16387.6102 0.0000 0.0000 14619.8894 -123367.8158 185.2581 -137987.7052 -123314.7476 185.2581 -114.3487 -114.6012 365157.6023 -114.3487 -114.6012
ENERGY: 41000 734.7863 2022.4257 2813.4721 112.2770 -159166.5976 16135.9176 0.0000 0.0000 14440.9364 -122906.7826 182.9905 -137347.7189 -122849.4908 181.6381 -173.4343 -171.7826 365151.3585 -1.5131 -1.5148
TCL: Setting parameter langevinTemp to 190
TCL: Running for 1000 steps
ETITLE: TS BOND ANGLE DIHED IMPRP ELECT VDW BOUNDARY MISC KINETIC TOTAL TEMP POTENTIAL TOTAL3 TEMPAVG PRESSURE GPRESSURE VOLUME PRESSAVG GPRESSAVG
ENERGY: 41000 734.7863 2022.4257 2813.4721 112.2770 -159166.5976 16135.9176 0.0000 0.0000 14965.8476 -122381.8713 189.6420 -137347.7189 -122326.7416 189.6420 -143.2817 -139.0435 365151.3585 -143.2817 -139.0435
ENERGY: 42000 758.8827 2126.0766 2806.2967 121.0022 -158484.9796 15830.6298 0.0000 0.0000 14809.3439 -122032.7475 187.6588 -136842.0915 -121973.8078 186.3824 -241.8416 -245.7680 365212.9091 2.6364 2.6928
TCL: Setting parameter langevinTemp to 195
TCL: Running for 1000 steps
