Info: SIMULATION PARAMETERS:
Info: TIMESTEP               2
Info: NUMBER OF STEPS        564000
Info: STEPS PER CYCLE        20
Info: PERIODIC CELL BASIS 1  87.1681 0 0
Info: PERIODIC CELL BASIS 2  0 68.7659 0
Info: PERIODIC CELL BASIS 3  0 0 62.9547
Info: PERIODIC CELL CENTER   0 0 0
Info: WRAPPING WATERS AROUND PERIODIC BOUNDARIES ON OUTPUT.
Info: WRAPPING ALL CLUSTERS AROUND PERIODIC BOUNDARIES ON OUTPUT.
Info: FIRST LDB TIMESTEP     100
Info: LAST LDB TIMESTEP     -1
Info: HOM BACKGROUND SCALING 1
Info: PME BACKGROUND SCALING 1
Info: MIN ATOMS PER PATCH    40
Info: VELOCITY FILE          equilibration-irun1.vel
Info: CENTER OF MASS MOVING INITIALLY? NO
Info: DIELECTRIC             1
Info: EXCLUDE                SCALED ONE-FOUR
Info: 1-4 ELECTROSTATICS SCALED BY 1
Info: MODIFIED 1-4 VDW PARAMETERS WILL BE USED
Info: DCD FILENAME           production-1-irun1.dcd
Info: DCD FREQUENCY          10000
Info: DCD FIRST STEP         570000
Info: DCD FILE WILL CONTAIN UNIT CELL DATA
Info: XST FILENAME           production-1-irun1.xst
Info: XST FREQUENCY          5000
Info: NO VELOCITY DCD OUTPUT
Info: NO FORCE DCD OUTPUT
Info: OUTPUT FILENAME        production-1-irun1
Info: BINARY OUTPUT FILES WILL BE USED
Info: RESTART FILENAME       production-1-irun1.restart
Info: RESTART FREQUENCY      5000
Info: BINARY RESTART FILES WILL BE USED
Info: SWITCHING ACTIVE
Info: VDW FORCE SWITCHING ACTIVE
Info: SWITCHING ON           10
Info: SWITCHING OFF          12
Info: PAIRLIST DISTANCE      16
Info: PAIRLIST SHRINK RATE   0.01
Info: PAIRLIST GROW RATE     0.01
Info: PAIRLIST TRIGGER       0.3
Info: PAIRLISTS PER CYCLE    2
Info: PAIRLISTS ENABLED
Info: MARGIN                 0.555
Info: HYDROGEN GROUP CUTOFF  2.5
Info: PATCH DIMENSION        19.055
Info: ENERGY OUTPUT STEPS    5000
Info: CROSSTERM ENERGY INCLUDED IN DIHEDRAL
Info: TIMING OUTPUT STEPS    5000
Info: LANGEVIN DYNAMICS ACTIVE
Info: LANGEVIN TEMPERATURE   300
Info: LANGEVIN USING BBK INTEGRATOR
Info: LANGEVIN DAMPING COEFFICIENT IS 1 INVERSE PS
Info: LANGEVIN DYNAMICS NOT APPLIED TO HYDROGENS
Info: LANGEVIN PISTON PRESSURE CONTROL ACTIVE
Info:        TARGET PRESSURE IS 1.01325 BAR
Info:     OSCILLATION PERIOD IS 50 FS
Info:             DECAY TIME IS 25 FS
Info:     PISTON TEMPERATURE IS 300 K
Info:       PRESSURE CONTROL IS GROUP-BASED
Info:    INITIAL STRAIN RATE IS -8.55857e-05 -8.55857e-05 -8.55857e-05
Info:       CELL FLUCTUATION IS ISOTROPIC
Info: PARTICLE MESH EWALD (PME) ACTIVE
Info: PME TOLERANCE               1e-06
Info: PME EWALD COEFFICIENT       0.257952
Info: PME INTERPOLATION ORDER     6
Info: PME GRID DIMENSIONS         88 72 64
Info: PME MAXIMUM GRID SPACING    1
Info: PME RECIPROCAL SUM OFFLOADED TO GPU
Info: FULL ELECTROSTATIC EVALUATION FREQUENCY      1
Info: USING VERLET I (r-RESPA) MTS SCHEME.
Info: C1 SPLITTING OF LONG RANGE ELECTROSTATICS
Info: PLACING ATOMS IN PATCHES BY HYDROGEN GROUPS
Info: RIGID BONDS TO HYDROGEN : ALL
Info:         ERROR TOLERANCE : 1e-08
Info:          MAX ITERATIONS : 100
Info: RIGID WATER USING SETTLE ALGORITHM
Info: RANDOM NUMBER SEED     1602937413
Info: USE HYDROGEN BONDS?    NO
Info: COORDINATE PDB         ../../step3_pbcsetup.pdb
Info: STRUCTURE FILE         ../../step3_pbcsetup.xplor.ext.psf
Info: PARAMETER file: CHARMM format!
Info: PARAMETERS             toppar/par_all36m_prot.prm
Info: PARAMETERS             toppar/par_all36_na.prm
Info: PARAMETERS             toppar/par_all36_carb.prm
Info: PARAMETERS             toppar/par_all36_lipid.prm
Info: PARAMETERS             toppar/par_all36_cgenff.prm
Info: PARAMETERS             toppar/toppar_water_ions.str
Info: PARAMETERS             toppar/toppar_dum_noble_gases.str
Info: PARAMETERS             toppar/toppar_all36_prot_fluoro_alkanes.str
Info: PARAMETERS             toppar/toppar_all36_prot_heme.str
Info: PARAMETERS             toppar/toppar_all36_prot_na_combined.str
Info: PARAMETERS             toppar/toppar_all36_prot_retinol.str
Info: PARAMETERS             toppar/toppar_all36_na_nad_ppi.str
Info: PARAMETERS             toppar/toppar_all36_na_rna_modified.str
Info: PARAMETERS             toppar/toppar_all36_lipid_bacterial.str
Info: PARAMETERS             toppar/toppar_all36_lipid_cardiolipin.str
Info: PARAMETERS             toppar/toppar_all36_lipid_cholesterol.str
Info: PARAMETERS             toppar/toppar_all36_lipid_inositol.str
Info: PARAMETERS             toppar/toppar_all36_lipid_lps.str
Info: PARAMETERS             toppar/toppar_all36_lipid_miscellaneous.str
Info: PARAMETERS             toppar/toppar_all36_lipid_model.str
Info: PARAMETERS             toppar/toppar_all36_lipid_prot.str
Info: PARAMETERS             toppar/toppar_all36_lipid_sphingo.str
Info: PARAMETERS             toppar/toppar_all36_lipid_yeast.str
Info: PARAMETERS             toppar/toppar_all36_lipid_hmmm.str
Info: PARAMETERS             toppar/toppar_all36_lipid_detergent.str
Info: PARAMETERS             toppar/toppar_all36_carb_glycolipid.str
Info: PARAMETERS             toppar/toppar_all36_carb_glycopeptide.str
Info: PARAMETERS             toppar/toppar_all36_carb_imlab.str
Info: PARAMETERS             toppar/toppar_all36_label_spin.str
Info: PARAMETERS             toppar/toppar_all36_label_fluorophore.str
Info: USING ARITHMETIC MEAN TO COMBINE L-J SIGMA PARAMETERS
Info: BINARY COORDINATES     equilibration-irun1.coor
Info: FIRST TIMESTEP         564000
Info: SUMMARY OF PARAMETERS:
Info: 1560 BONDS
Info: 4670 ANGLES
Info: 11987 DIHEDRAL
Info: 298 IMPROPER
Info: 10 CROSSTERM
Info: 550 VDW
Info: 45 VDW_PAIRS
Info: 0 NBTHOLE_PAIRS
Info: STRUCTURE SUMMARY:
Info: 38463 ATOMS
Info: 27281 BONDS
Info: 20075 ANGLES
Info: 13065 DIHEDRALS
Info: 838 IMPROPERS
Info: 305 CROSSTERMS
Info: 0 EXCLUSIONS
Info: 35964 RIGID BONDS
Info: 79425 DEGREES OF FREEDOM
Info: 13686 HYDROGEN GROUPS
Info: 4 ATOMS IN LARGEST HYDROGEN GROUP
Info: 13686 MIGRATION GROUPS
Info: 4 ATOMS IN LARGEST MIGRATION GROUP
Info: TOTAL MASS = 238614 amu
Info: TOTAL CHARGE = 3.67314e-06 e
Info: MASS DENSITY = 1.05002 g/cm^3
Info: ATOM DENSITY = 0.101926 atoms/A^3
Info: ADDED 60126 IMPLICIT EXCLUSIONS
Info: NONBONDED TABLE R-SQUARED SPACING: 0.0625
Info: NONBONDED TABLE SIZE: 769 POINTS
Info: REMOVING COM VELOCITY 0.0225146 -0.0126959 0.00299292
Info: Updated CUDA force table with 4096 elements.
Info: Updated CUDA LJ table with 550 x 550 elements.
Info: Found 318 unique exclusion lists needing 1032 bytes
TCL: Running for 10000000 steps
ETITLE: TS BOND ANGLE DIHED IMPRP ELECT VDW BOUNDARY MISC KINETIC TOTAL TEMP POTENTIAL TOTAL3 TEMPAVG PRESSURE GPRESSURE VOLUME PRESSAVG GPRESSAVG
ENERGY: 565000 1018.2259 2853.0359 2889.6845 168.5966 -136780.2906 10572.8576 0.0000 0.0000 23693.6225 -95584.2676 300.2373 -119277.8901 -95497.1741 299.6972 -75.3822 -76.5092 377503.6805 4.5913 4.6602
ENERGY: 2565000 1016.6428 2777.9928 2865.5830 166.1125 -136947.9581 10661.8685 0.0000 0.0000 23520.8604 -95938.8981 298.0481 -119459.7584 -95853.5035 298.7563 -196.8239 -202.4960 377059.4510 2.4112 2.4422
ENERGY: 4565000 1025.6308 2778.0690 2880.5156 149.7094 -137050.5581 10788.0074 0.0000 0.0000 23717.7428 -95710.8830 300.5429 -119428.6258 -95622.9124 299.8031 79.1317 76.9312 377803.0748 0.8726 0.8798
ENERGY: 6560000 1017.1918 2738.1335 2869.1287 151.9143 -136919.2343 10800.9028 0.0000 0.0000 23505.1899 -95836.7733 297.8495 -119341.9632 -95749.0135 298.0916 145.0273 146.0700 376989.9530 1.6864 1.6731
ENERGY: 8560000 974.4862 2811.3719 2815.1445 151.7913 -136793.1827 10527.9512 0.0000 0.0000 23559.9756 -95952.4621 298.5438 -119512.4377 -95869.1454 298.7073 -133.7543 -134.6423 377488.8897 2.7998 2.7515
ENERGY: 10560000 1028.9240 2798.9020 2892.7667 148.4274 -137364.2721 10812.9110 0.0000 0.0000 23501.0029 -96181.3381 297.7965 -119682.3411 -96104.4482 299.2570 70.3085 72.0527 375520.7296 0.1825 0.2160
