Info: SIMULATION PARAMETERS:
Info: TIMESTEP               2
Info: NUMBER OF STEPS        190564000
Info: STEPS PER CYCLE        20
Info: PERIODIC CELL BASIS 1  87.0824 0 0
Info: PERIODIC CELL BASIS 2  0 68.6983 0
Info: PERIODIC CELL BASIS 3  0 0 62.8928
Info: PERIODIC CELL CENTER   0 0 0
Info: WRAPPING WATERS AROUND PERIODIC BOUNDARIES ON OUTPUT.
Info: WRAPPING ALL CLUSTERS AROUND PERIODIC BOUNDARIES ON OUTPUT.
Info: FIRST LDB TIMESTEP     100
Info: LAST LDB TIMESTEP     -1
Info: HOM BACKGROUND SCALING 1
Info: PME BACKGROUND SCALING 1
Info: MIN ATOMS PER PATCH    40
Info: VELOCITY FILE          production-19-irun1.vel
Info: CENTER OF MASS MOVING INITIALLY? NO
Info: DIELECTRIC             1
Info: EXCLUDE                SCALED ONE-FOUR
Info: 1-4 ELECTROSTATICS SCALED BY 1
Info: MODIFIED 1-4 VDW PARAMETERS WILL BE USED
Info: DCD FILENAME           production-20-irun1.dcd
Info: DCD FREQUENCY          5000
Info: DCD FIRST STEP         190565000
Info: DCD FILE WILL CONTAIN UNIT CELL DATA
Info: XST FILENAME           production-20-irun1.xst
Info: XST FREQUENCY          5000
Info: NO VELOCITY DCD OUTPUT
Info: NO FORCE DCD OUTPUT
Info: OUTPUT FILENAME        production-20-irun1
Info: BINARY OUTPUT FILES WILL BE USED
Info: RESTART FILENAME       production-20-irun1.restart
Info: RESTART FREQUENCY      5000
Info: BINARY RESTART FILES WILL BE USED
Info: SWITCHING ACTIVE
Info: VDW FORCE SWITCHING ACTIVE
Info: SWITCHING ON           10
Info: SWITCHING OFF          12
Info: PAIRLIST DISTANCE      16
Info: PAIRLIST SHRINK RATE   0.01
Info: PAIRLIST GROW RATE     0.01
Info: PAIRLIST TRIGGER       0.3
Info: PAIRLISTS PER CYCLE    2
Info: PAIRLISTS ENABLED
Info: MARGIN                 0.555
Info: HYDROGEN GROUP CUTOFF  2.5
Info: PATCH DIMENSION        19.055
Info: ENERGY OUTPUT STEPS    5000
Info: CROSSTERM ENERGY INCLUDED IN DIHEDRAL
Info: TIMING OUTPUT STEPS    5000
Info: LANGEVIN DYNAMICS ACTIVE
Info: LANGEVIN TEMPERATURE   300
Info: LANGEVIN USING BBK INTEGRATOR
Info: LANGEVIN DAMPING COEFFICIENT IS 1 INVERSE PS
Info: LANGEVIN DYNAMICS NOT APPLIED TO HYDROGENS
Info: LANGEVIN PISTON PRESSURE CONTROL ACTIVE
Info:        TARGET PRESSURE IS 1.01325 BAR
Info:     OSCILLATION PERIOD IS 50 FS
Info:             DECAY TIME IS 25 FS
Info:     PISTON TEMPERATURE IS 300 K
Info:       PRESSURE CONTROL IS GROUP-BASED
Info:    INITIAL STRAIN RATE IS -5.62092e-05 -5.62092e-05 -5.62092e-05
Info:       CELL FLUCTUATION IS ISOTROPIC
Info: PARTICLE MESH EWALD (PME) ACTIVE
Info: PME TOLERANCE               1e-06
Info: PME EWALD COEFFICIENT       0.257952
Info: PME INTERPOLATION ORDER     6
Info: PME GRID DIMENSIONS         88 72 64
Info: PME MAXIMUM GRID SPACING    1
Info: PME RECIPROCAL SUM OFFLOADED TO GPU
Info: FULL ELECTROSTATIC EVALUATION FREQUENCY      1
Info: USING VERLET I (r-RESPA) MTS SCHEME.
Info: C1 SPLITTING OF LONG RANGE ELECTROSTATICS
Info: PLACING ATOMS IN PATCHES BY HYDROGEN GROUPS
Info: RIGID BONDS TO HYDROGEN : ALL
Info:         ERROR TOLERANCE : 1e-08
Info:          MAX ITERATIONS : 100
Info: RIGID WATER USING SETTLE ALGORITHM
Info: RANDOM NUMBER SEED     1629005949
Info: USE HYDROGEN BONDS?    NO
Info: COORDINATE PDB         ../../step3_pbcsetup.pdb
Info: STRUCTURE FILE         ../../step3_pbcsetup.xplor.ext.psf
Info: PARAMETER file: CHARMM format!
Info: PARAMETERS             toppar/par_all36m_prot.prm
Info: PARAMETERS             toppar/par_all36_na.prm
Info: PARAMETERS             toppar/par_all36_carb.prm
Info: PARAMETERS             toppar/par_all36_lipid.prm
Info: PARAMETERS             toppar/par_all36_cgenff.prm
Info: PARAMETERS             toppar/toppar_water_ions.str
Info: PARAMETERS             toppar/toppar_dum_noble_gases.str
Info: PARAMETERS             toppar/toppar_all36_prot_fluoro_alkanes.str
Info: PARAMETERS             toppar/toppar_all36_prot_heme.str
Info: PARAMETERS             toppar/toppar_all36_prot_na_combined.str
Info: PARAMETERS             toppar/toppar_all36_prot_retinol.str
Info: PARAMETERS             toppar/toppar_all36_na_nad_ppi.str
Info: PARAMETERS             toppar/toppar_all36_na_rna_modified.str
Info: PARAMETERS             toppar/toppar_all36_lipid_bacterial.str
Info: PARAMETERS             toppar/toppar_all36_lipid_cardiolipin.str
Info: PARAMETERS             toppar/toppar_all36_lipid_cholesterol.str
Info: PARAMETERS             toppar/toppar_all36_lipid_inositol.str
Info: PARAMETERS             toppar/toppar_all36_lipid_lps.str
Info: PARAMETERS             toppar/toppar_all36_lipid_miscellaneous.str
Info: PARAMETERS             toppar/toppar_all36_lipid_model.str
Info: PARAMETERS             toppar/toppar_all36_lipid_prot.str
Info: PARAMETERS             toppar/toppar_all36_lipid_sphingo.str
Info: PARAMETERS             toppar/toppar_all36_lipid_yeast.str
Info: PARAMETERS             toppar/toppar_all36_lipid_hmmm.str
Info: PARAMETERS             toppar/toppar_all36_lipid_detergent.str
Info: PARAMETERS             toppar/toppar_all36_carb_glycolipid.str
Info: PARAMETERS             toppar/toppar_all36_carb_glycopeptide.str
Info: PARAMETERS             toppar/toppar_all36_carb_imlab.str
Info: PARAMETERS             toppar/toppar_all36_label_spin.str
Info: PARAMETERS             toppar/toppar_all36_label_fluorophore.str
Info: USING ARITHMETIC MEAN TO COMBINE L-J SIGMA PARAMETERS
Info: BINARY COORDINATES     production-19-irun1.coor
Info: FIRST TIMESTEP         190564000
Info: SUMMARY OF PARAMETERS:
Info: 1560 BONDS
Info: 4670 ANGLES
Info: 11987 DIHEDRAL
Info: 298 IMPROPER
Info: 10 CROSSTERM
Info: 550 VDW
Info: 45 VDW_PAIRS
Info: 0 NBTHOLE_PAIRS
Info: STRUCTURE SUMMARY:
Info: 38463 ATOMS
Info: 27281 BONDS
Info: 20075 ANGLES
Info: 13065 DIHEDRALS
Info: 838 IMPROPERS
Info: 305 CROSSTERMS
Info: 0 EXCLUSIONS
Info: 35964 RIGID BONDS
Info: 79425 DEGREES OF FREEDOM
Info: 13686 HYDROGEN GROUPS
Info: 4 ATOMS IN LARGEST HYDROGEN GROUP
Info: 13686 MIGRATION GROUPS
Info: 4 ATOMS IN LARGEST MIGRATION GROUP
Info: TOTAL MASS = 238614 amu
Info: TOTAL CHARGE = 3.67314e-06 e
Info: MASS DENSITY = 1.05312 g/cm^3
Info: ATOM DENSITY = 0.102227 atoms/A^3
Info: ADDED 60126 IMPLICIT EXCLUSIONS
Info: NONBONDED TABLE R-SQUARED SPACING: 0.0625
Info: NONBONDED TABLE SIZE: 769 POINTS
Info: REMOVING COM VELOCITY 0.0057322 -0.0368124 0.0122746
Info: Updated CUDA force table with 4096 elements.
Info: Updated CUDA LJ table with 550 x 550 elements.
Info: Found 318 unique exclusion lists needing 1032 bytes
TCL: Running for 10000000 steps
ETITLE: TS BOND ANGLE DIHED IMPRP ELECT VDW BOUNDARY MISC KINETIC TOTAL TEMP POTENTIAL TOTAL3 TEMPAVG PRESSURE GPRESSURE VOLUME PRESSAVG GPRESSAVG
ENERGY: 190565000 1010.3850 2834.0101 2797.0122 155.3097 -137130.2734 10952.9925 0.0000 0.0000 23712.2387 -95668.3253 300.4732 -119380.5640 -95578.6072 299.6216 159.8983 162.3005 377164.6997 -1.1845 -1.2218
ENERGY: 192565000 990.7160 2803.4646 2798.5929 180.1932 -137073.1731 10744.0205 0.0000 0.0000 23563.7739 -95992.4119 298.5919 -119556.1858 -95906.3464 299.1530 106.9735 109.4359 376226.0528 1.3678 1.4071
ENERGY: 194565000 1075.4960 2789.6568 2818.1564 154.2718 -136683.9612 10538.0056 0.0000 0.0000 23538.5148 -95769.8598 298.2718 -119308.3746 -95688.8942 299.9643 -292.3185 -300.6471 378674.5513 0.3667 0.3516
ENERGY: 196560000 951.1140 2833.5705 2764.4032 159.9826 -136829.2985 10761.7781 0.0000 0.0000 23582.2194 -95776.2307 298.8256 -119358.4501 -95690.5071 299.5050 165.5222 166.9907 376269.6166 1.0304 1.0507
ENERGY: 198560000 1034.2271 2869.4400 2799.9072 145.4310 -136801.4433 10911.5842 0.0000 0.0000 23615.3668 -95425.4869 299.2457 -119040.8538 -95347.0618 300.1262 -23.0492 -23.0040 378668.9581 1.3543 1.3935
ENERGY: 200560000 996.4954 2751.8797 2831.3408 159.5643 -137152.2095 10759.9639 0.0000 0.0000 23870.3208 -95782.6446 302.4763 -119652.9654 -95705.3106 299.9097 126.7696 121.1741 377047.4132 1.5805 1.5725
